data_image0
_cell_length_a       25.184
_cell_length_b       25.184
_cell_length_c       6.878
_cell_angle_alpha    90
_cell_angle_beta     90
_cell_angle_gamma    120

_symmetry_space_group_name_H-M    "P 1"
_symmetry_int_tables_number       1

loop_
  _symmetry_equiv_pos_as_xyz
  'x, y, z'

loop_
  _atom_site_label
  _atom_site_occupancy
  _atom_site_fract_x
  _atom_site_fract_y
  _atom_site_fract_z
  _atom_site_thermal_displace_type
  _atom_site_B_iso_or_equiv
  _atom_site_type_symbol
  C1       1.0000 0.00000  0.55593  0.25000  Biso   1.000  C
  C2       1.0000 0.44407  0.44407  0.25000  Biso   1.000  C
  C3       1.0000 0.55593  0.00000  0.25000  Biso   1.000  C
  C4       1.0000 0.00000  0.44407  0.25000  Biso   1.000  C
  C5       1.0000 0.55593  0.55593  0.25000  Biso   1.000  C
  C6       1.0000 0.44407  0.00000  0.25000  Biso   1.000  C
  C7       1.0000 0.49970  0.05543  0.25000  Biso   1.000  C
  C8       1.0000 0.94457  0.44427  0.25000  Biso   1.000  C
  C9       1.0000 0.55573  0.50030  0.25000  Biso   1.000  C
  C10      1.0000 0.50030  0.94457  0.25000  Biso   1.000  C
  C11      1.0000 0.05543  0.55573  0.25000  Biso   1.000  C
  C12      1.0000 0.44427  0.49970  0.25000  Biso   1.000  C
  C13      1.0000 0.94457  0.50030  0.25000  Biso   1.000  C
  C14      1.0000 0.55573  0.05543  0.25000  Biso   1.000  C
  C15      1.0000 0.49970  0.44427  0.25000  Biso   1.000  C
  C16      1.0000 0.05543  0.49970  0.25000  Biso   1.000  C
  C17      1.0000 0.44427  0.94457  0.25000  Biso   1.000  C
  C18      1.0000 0.50030  0.55573  0.25000  Biso   1.000  C
  C19      1.0000 0.60971  0.16401  0.25000  Biso   1.000  C
  C20      1.0000 0.83599  0.44570  0.25000  Biso   1.000  C
  C21      1.0000 0.55430  0.39029  0.25000  Biso   1.000  C
  C22      1.0000 0.39029  0.83599  0.25000  Biso   1.000  C
  C23      1.0000 0.16401  0.55430  0.25000  Biso   1.000  C
  C24      1.0000 0.44570  0.60971  0.25000  Biso   1.000  C
  C25      1.0000 0.83599  0.39029  0.25000  Biso   1.000  C
  C26      1.0000 0.55430  0.16401  0.25000  Biso   1.000  C
  C27      1.0000 0.60971  0.44570  0.25000  Biso   1.000  C
  C28      1.0000 0.16401  0.60971  0.25000  Biso   1.000  C
  C29      1.0000 0.44570  0.83599  0.25000  Biso   1.000  C
  C30      1.0000 0.39029  0.55430  0.25000  Biso   1.000  C
  C31      1.0000 0.66483  0.21917  0.25000  Biso   1.000  C
  C32      1.0000 0.78083  0.44566  0.25000  Biso   1.000  C
  C33      1.0000 0.55434  0.33517  0.25000  Biso   1.000  C
  C34      1.0000 0.33517  0.78083  0.25000  Biso   1.000  C
  C35      1.0000 0.21917  0.55434  0.25000  Biso   1.000  C
  C36      1.0000 0.44566  0.66483  0.25000  Biso   1.000  C
  C37      1.0000 0.78083  0.33517  0.25000  Biso   1.000  C
  C38      1.0000 0.55434  0.21917  0.25000  Biso   1.000  C
  C39      1.0000 0.66483  0.44566  0.25000  Biso   1.000  C
  C40      1.0000 0.21917  0.66483  0.25000  Biso   1.000  C
  C41      1.0000 0.44566  0.78083  0.25000  Biso   1.000  C
  C42      1.0000 0.33517  0.55434  0.25000  Biso   1.000  C
  C43      1.0000 0.66669  0.27661  0.25000  Biso   1.000  C
  C44      1.0000 0.72339  0.39008  0.25000  Biso   1.000  C
  C45      1.0000 0.60992  0.33331  0.25000  Biso   1.000  C
  C46      1.0000 0.33331  0.72339  0.25000  Biso   1.000  C
  C47      1.0000 0.27661  0.60992  0.25000  Biso   1.000  C
  C48      1.0000 0.39008  0.66669  0.25000  Biso   1.000  C
  C49      1.0000 0.72339  0.33331  0.25000  Biso   1.000  C
  C50      1.0000 0.60992  0.27661  0.25000  Biso   1.000  C
  C51      1.0000 0.66669  0.39008  0.25000  Biso   1.000  C
  C52      1.0000 0.27661  0.66669  0.25000  Biso   1.000  C
  C53      1.0000 0.39008  0.72339  0.25000  Biso   1.000  C
  C54      1.0000 0.33331  0.60992  0.25000  Biso   1.000  C
  O1       1.0000 0.60927  0.10977  0.25000  Biso   1.000  O
  O2       1.0000 0.89023  0.49950  0.25000  Biso   1.000  O
  O3       1.0000 0.50050  0.39073  0.25000  Biso   1.000  O
  O4       1.0000 0.39073  0.89023  0.25000  Biso   1.000  O
  O5       1.0000 0.10977  0.50050  0.25000  Biso   1.000  O
  O6       1.0000 0.49950  0.60927  0.25000  Biso   1.000  O
  O7       1.0000 0.89023  0.39073  0.25000  Biso   1.000  O
  O8       1.0000 0.50050  0.10977  0.25000  Biso   1.000  O
  O9       1.0000 0.60927  0.49950  0.25000  Biso   1.000  O
  O10      1.0000 0.10977  0.60927  0.25000  Biso   1.000  O
  O11      1.0000 0.49950  0.89023  0.25000  Biso   1.000  O
  O12      1.0000 0.39073  0.50050  0.25000  Biso   1.000  O
  H1       1.0000 0.70506  0.49035  0.25000  Biso   1.000  H
  H2       1.0000 0.50965  0.21471  0.25000  Biso   1.000  H
  H3       1.0000 0.78529  0.29494  0.25000  Biso   1.000  H
  H4       1.0000 0.29494  0.50965  0.25000  Biso   1.000  H
  H5       1.0000 0.49035  0.78529  0.25000  Biso   1.000  H
  H6       1.0000 0.21471  0.70506  0.25000  Biso   1.000  H
  H7       1.0000 0.50965  0.29494  0.25000  Biso   1.000  H
  H8       1.0000 0.78529  0.49035  0.25000  Biso   1.000  H
  H9       1.0000 0.70506  0.21471  0.25000  Biso   1.000  H
  H10      1.0000 0.49035  0.70506  0.25000  Biso   1.000  H
  H11      1.0000 0.21471  0.50965  0.25000  Biso   1.000  H
  H12      1.0000 0.29494  0.78529  0.25000  Biso   1.000  H
  H13      1.0000 0.00000  0.40105  0.25000  Biso   1.000  H
  H14      1.0000 0.59895  0.59895  0.25000  Biso   1.000  H
  H15      1.0000 0.40105  0.00000  0.25000  Biso   1.000  H
  H16      1.0000 0.00000  0.59895  0.25000  Biso   1.000  H
  H17      1.0000 0.40105  0.40105  0.25000  Biso   1.000  H
  H18      1.0000 0.59895  0.00000  0.25000  Biso   1.000  H
  C55      1.0000 0.00000  0.55593  0.75000  Biso   1.000  C
  C56      1.0000 0.44407  0.44407  0.75000  Biso   1.000  C
  C57      1.0000 0.55593  0.00000  0.75000  Biso   1.000  C
  C58      1.0000 0.00000  0.44407  0.75000  Biso   1.000  C
  C59      1.0000 0.55593  0.55593  0.75000  Biso   1.000  C
  C60      1.0000 0.44407  0.00000  0.75000  Biso   1.000  C
  C61      1.0000 0.49970  0.05543  0.75000  Biso   1.000  C
  C62      1.0000 0.94457  0.44427  0.75000  Biso   1.000  C
  C63      1.0000 0.55573  0.50030  0.75000  Biso   1.000  C
  C64      1.0000 0.50030  0.94457  0.75000  Biso   1.000  C
  C65      1.0000 0.05543  0.55573  0.75000  Biso   1.000  C
  C66      1.0000 0.44427  0.49970  0.75000  Biso   1.000  C
  C67      1.0000 0.94457  0.50030  0.75000  Biso   1.000  C
  C68      1.0000 0.55573  0.05543  0.75000  Biso   1.000  C
  C69      1.0000 0.49970  0.44427  0.75000  Biso   1.000  C
  C70      1.0000 0.05543  0.49970  0.75000  Biso   1.000  C
  C71      1.0000 0.44427  0.94457  0.75000  Biso   1.000  C
  C72      1.0000 0.50030  0.55573  0.75000  Biso   1.000  C
  C73      1.0000 0.60971  0.16401  0.75000  Biso   1.000  C
  C74      1.0000 0.83599  0.44570  0.75000  Biso   1.000  C
  C75      1.0000 0.55430  0.39029  0.75000  Biso   1.000  C
  C76      1.0000 0.39029  0.83599  0.75000  Biso   1.000  C
  C77      1.0000 0.16401  0.55430  0.75000  Biso   1.000  C
  C78      1.0000 0.44570  0.60971  0.75000  Biso   1.000  C
  C79      1.0000 0.83599  0.39029  0.75000  Biso   1.000  C
  C80      1.0000 0.55430  0.16401  0.75000  Biso   1.000  C
  C81      1.0000 0.60971  0.44570  0.75000  Biso   1.000  C
  C82      1.0000 0.16401  0.60971  0.75000  Biso   1.000  C
  C83      1.0000 0.44570  0.83599  0.75000  Biso   1.000  C
  C84      1.0000 0.39029  0.55430  0.75000  Biso   1.000  C
  C85      1.0000 0.66483  0.21917  0.75000  Biso   1.000  C
  C86      1.0000 0.78083  0.44566  0.75000  Biso   1.000  C
  C87      1.0000 0.55434  0.33517  0.75000  Biso   1.000  C
  C88      1.0000 0.33517  0.78083  0.75000  Biso   1.000  C
  C89      1.0000 0.21917  0.55434  0.75000  Biso   1.000  C
  C90      1.0000 0.44566  0.66483  0.75000  Biso   1.000  C
  C91      1.0000 0.78083  0.33517  0.75000  Biso   1.000  C
  C92      1.0000 0.55434  0.21917  0.75000  Biso   1.000  C
  C93      1.0000 0.66483  0.44566  0.75000  Biso   1.000  C
  C94      1.0000 0.21917  0.66483  0.75000  Biso   1.000  C
  C95      1.0000 0.44566  0.78083  0.75000  Biso   1.000  C
  C96      1.0000 0.33517  0.55434  0.75000  Biso   1.000  C
  C97      1.0000 0.66669  0.27661  0.75000  Biso   1.000  C
  C98      1.0000 0.72339  0.39008  0.75000  Biso   1.000  C
  C99      1.0000 0.60992  0.33331  0.75000  Biso   1.000  C
  C100     1.0000 0.33331  0.72339  0.75000  Biso   1.000  C
  C101     1.0000 0.27661  0.60992  0.75000  Biso   1.000  C
  C102     1.0000 0.39008  0.66669  0.75000  Biso   1.000  C
  C103     1.0000 0.72339  0.33331  0.75000  Biso   1.000  C
  C104     1.0000 0.60992  0.27661  0.75000  Biso   1.000  C
  C105     1.0000 0.66669  0.39008  0.75000  Biso   1.000  C
  C106     1.0000 0.27661  0.66669  0.75000  Biso   1.000  C
  C107     1.0000 0.39008  0.72339  0.75000  Biso   1.000  C
  C108     1.0000 0.33331  0.60992  0.75000  Biso   1.000  C
  O13      1.0000 0.60927  0.10977  0.75000  Biso   1.000  O
  O14      1.0000 0.89023  0.49950  0.75000  Biso   1.000  O
  O15      1.0000 0.50050  0.39073  0.75000  Biso   1.000  O
  O16      1.0000 0.39073  0.89023  0.75000  Biso   1.000  O
  O17      1.0000 0.10977  0.50050  0.75000  Biso   1.000  O
  O18      1.0000 0.49950  0.60927  0.75000  Biso   1.000  O
  O19      1.0000 0.89023  0.39073  0.75000  Biso   1.000  O
  O20      1.0000 0.50050  0.10977  0.75000  Biso   1.000  O
  O21      1.0000 0.60927  0.49950  0.75000  Biso   1.000  O
  O22      1.0000 0.10977  0.60927  0.75000  Biso   1.000  O
  O23      1.0000 0.49950  0.89023  0.75000  Biso   1.000  O
  O24      1.0000 0.39073  0.50050  0.75000  Biso   1.000  O
  H19      1.0000 0.70506  0.49035  0.75000  Biso   1.000  H
  H20      1.0000 0.50965  0.21471  0.75000  Biso   1.000  H
  H21      1.0000 0.78529  0.29494  0.75000  Biso   1.000  H
  H22      1.0000 0.29494  0.50965  0.75000  Biso   1.000  H
  H23      1.0000 0.49035  0.78529  0.75000  Biso   1.000  H
  H24      1.0000 0.21471  0.70506  0.75000  Biso   1.000  H
  H25      1.0000 0.50965  0.29494  0.75000  Biso   1.000  H
  H26      1.0000 0.78529  0.49035  0.75000  Biso   1.000  H
  H27      1.0000 0.70506  0.21471  0.75000  Biso   1.000  H
  H28      1.0000 0.49035  0.70506  0.75000  Biso   1.000  H
  H29      1.0000 0.21471  0.50965  0.75000  Biso   1.000  H
  H30      1.0000 0.29494  0.78529  0.75000  Biso   1.000  H
  H31      1.0000 0.00000  0.40105  0.75000  Biso   1.000  H
  H32      1.0000 0.59895  0.59895  0.75000  Biso   1.000  H
  H33      1.0000 0.40105  0.00000  0.75000  Biso   1.000  H
  H34      1.0000 0.00000  0.59895  0.75000  Biso   1.000  H
  H35      1.0000 0.40105  0.40105  0.75000  Biso   1.000  H
  H36      1.0000 0.59895  0.00000  0.75000  Biso   1.000  H
