data_image0
_cell_length_a       32.005
_cell_length_b       32.005
_cell_length_c       6.88
_cell_angle_alpha    90
_cell_angle_beta     90
_cell_angle_gamma    120

_symmetry_space_group_name_H-M    "P 1"
_symmetry_int_tables_number       1

loop_
  _symmetry_equiv_pos_as_xyz
  'x, y, z'

loop_
  _atom_site_label
  _atom_site_occupancy
  _atom_site_fract_x
  _atom_site_fract_y
  _atom_site_fract_z
  _atom_site_thermal_displace_type
  _atom_site_B_iso_or_equiv
  _atom_site_type_symbol
  N1       1.0000 0.16860  0.14502  0.37500  Biso   1.000  N
  N2       1.0000 0.85498  0.02358  0.37500  Biso   1.000  N
  N3       1.0000 0.97642  0.83140  0.37500  Biso   1.000  N
  N4       1.0000 0.83140  0.85498  0.12500  Biso   1.000  N
  N5       1.0000 0.14502  0.97642  0.12500  Biso   1.000  N
  N6       1.0000 0.02358  0.16860  0.12500  Biso   1.000  N
  C1       1.0000 0.21387  0.15140  0.37500  Biso   1.000  C
  C2       1.0000 0.84860  0.06247  0.37500  Biso   1.000  C
  C3       1.0000 0.93753  0.78613  0.37500  Biso   1.000  C
  C4       1.0000 0.78613  0.84860  0.12500  Biso   1.000  C
  C5       1.0000 0.15140  0.93753  0.12500  Biso   1.000  C
  C6       1.0000 0.06247  0.21387  0.12500  Biso   1.000  C
  C7       1.0000 0.35839  0.17003  0.37500  Biso   1.000  C
  C8       1.0000 0.82997  0.18836  0.37500  Biso   1.000  C
  C9       1.0000 0.81164  0.64161  0.37500  Biso   1.000  C
  C10      1.0000 0.64161  0.82997  0.12500  Biso   1.000  C
  C11      1.0000 0.17003  0.81164  0.12500  Biso   1.000  C
  C12      1.0000 0.18836  0.35839  0.12500  Biso   1.000  C
  C13      1.0000 0.44643  0.22247  0.37500  Biso   1.000  C
  C14      1.0000 0.77753  0.22396  0.37500  Biso   1.000  C
  C15      1.0000 0.77604  0.55357  0.37500  Biso   1.000  C
  C16      1.0000 0.55357  0.77753  0.12500  Biso   1.000  C
  C17      1.0000 0.22247  0.77604  0.12500  Biso   1.000  C
  C18      1.0000 0.22396  0.44643  0.12500  Biso   1.000  C
  N7       1.0000 0.48605  0.26731  0.37500  Biso   1.000  N
  N8       1.0000 0.73269  0.21874  0.37500  Biso   1.000  N
  N9       1.0000 0.78126  0.51395  0.37500  Biso   1.000  N
  N10      1.0000 0.51395  0.73269  0.12500  Biso   1.000  N
  N11      1.0000 0.26731  0.78126  0.12500  Biso   1.000  N
  N12      1.0000 0.21874  0.48605  0.12500  Biso   1.000  N
  C19      1.0000 0.53134  0.27357  0.37500  Biso   1.000  C
  C20      1.0000 0.72643  0.25777  0.37500  Biso   1.000  C
  C21      1.0000 0.74223  0.46866  0.37500  Biso   1.000  C
  C22      1.0000 0.46866  0.72643  0.12500  Biso   1.000  C
  C23      1.0000 0.27357  0.74223  0.12500  Biso   1.000  C
  C24      1.0000 0.25777  0.53134  0.12500  Biso   1.000  C
  C25      1.0000 0.57147  0.31964  0.37500  Biso   1.000  C
  C26      1.0000 0.68036  0.25183  0.37500  Biso   1.000  C
  C27      1.0000 0.74817  0.42853  0.37500  Biso   1.000  C
  C28      1.0000 0.42853  0.68036  0.12500  Biso   1.000  C
  C29      1.0000 0.31964  0.74817  0.12500  Biso   1.000  C
  C30      1.0000 0.25183  0.57147  0.12500  Biso   1.000  C
  C31      1.0000 0.61927  0.32721  0.37500  Biso   1.000  C
  C32      1.0000 0.67279  0.29206  0.37500  Biso   1.000  C
  C33      1.0000 0.70794  0.38073  0.37500  Biso   1.000  C
  C34      1.0000 0.38073  0.67279  0.12500  Biso   1.000  C
  C35      1.0000 0.32721  0.70794  0.12500  Biso   1.000  C
  C36      1.0000 0.29206  0.61927  0.12500  Biso   1.000  C
  C37      1.0000 0.12913  0.10006  0.37500  Biso   1.000  C
  C38      1.0000 0.89994  0.02907  0.37500  Biso   1.000  C
  C39      1.0000 0.97093  0.87087  0.37500  Biso   1.000  C
  C40      1.0000 0.87087  0.89994  0.12500  Biso   1.000  C
  C41      1.0000 0.10006  0.97093  0.12500  Biso   1.000  C
  C42      1.0000 0.02907  0.12913  0.12500  Biso   1.000  C
  C43      1.0000 0.08308  0.09405  0.37500  Biso   1.000  C
  C44      1.0000 0.90595  0.98903  0.37500  Biso   1.000  C
  C45      1.0000 0.01097  0.91692  0.37500  Biso   1.000  C
  C46      1.0000 0.91692  0.90595  0.12500  Biso   1.000  C
  C47      1.0000 0.09405  0.01097  0.12500  Biso   1.000  C
  C48      1.0000 0.98903  0.08308  0.12500  Biso   1.000  C
  C49      1.0000 0.99383  0.04120  0.37500  Biso   1.000  C
  C50      1.0000 0.95880  0.95263  0.37500  Biso   1.000  C
  C51      1.0000 0.04737  0.00617  0.37500  Biso   1.000  C
  C52      1.0000 0.00617  0.95880  0.12500  Biso   1.000  C
  C53      1.0000 0.04120  0.04737  0.12500  Biso   1.000  C
  C54      1.0000 0.95263  0.99383  0.12500  Biso   1.000  C
  H1       1.0000 0.08194  0.12701  0.37500  Biso   1.000  H
  H2       1.0000 0.87299  0.95493  0.37500  Biso   1.000  H
  H3       1.0000 0.04507  0.91806  0.37500  Biso   1.000  H
  H4       1.0000 0.91806  0.87299  0.12500  Biso   1.000  H
  H5       1.0000 0.12701  0.04507  0.12500  Biso   1.000  H
  H6       1.0000 0.95493  0.08194  0.12500  Biso   1.000  H
  H7       1.0000 0.56340  0.34842  0.37500  Biso   1.000  H
  H8       1.0000 0.65158  0.21498  0.37500  Biso   1.000  H
  H9       1.0000 0.78502  0.43660  0.37500  Biso   1.000  H
  H10      1.0000 0.43660  0.65158  0.12500  Biso   1.000  H
  H11      1.0000 0.34842  0.78502  0.12500  Biso   1.000  H
  H12      1.0000 0.21498  0.56340  0.12500  Biso   1.000  H
  C55      1.0000 0.94342  0.74595  0.37500  Biso   1.000  C
  C56      1.0000 0.25405  0.19747  0.37500  Biso   1.000  C
  C57      1.0000 0.80253  0.05658  0.37500  Biso   1.000  C
  C58      1.0000 0.05658  0.25405  0.12500  Biso   1.000  C
  C59      1.0000 0.74595  0.80253  0.12500  Biso   1.000  C
  C60      1.0000 0.19747  0.94342  0.12500  Biso   1.000  C
  C61      1.0000 0.90310  0.69957  0.37500  Biso   1.000  C
  C62      1.0000 0.30043  0.20353  0.37500  Biso   1.000  C
  C63      1.0000 0.79647  0.09690  0.37500  Biso   1.000  C
  C64      1.0000 0.09690  0.30043  0.12500  Biso   1.000  C
  C65      1.0000 0.69957  0.79647  0.12500  Biso   1.000  C
  C66      1.0000 0.20353  0.90310  0.12500  Biso   1.000  C
  C67      1.0000 0.81649  0.59988  0.37500  Biso   1.000  C
  C68      1.0000 0.40012  0.21661  0.37500  Biso   1.000  C
  C69      1.0000 0.78339  0.18351  0.37500  Biso   1.000  C
  C70      1.0000 0.18351  0.40012  0.12500  Biso   1.000  C
  C71      1.0000 0.59988  0.78339  0.12500  Biso   1.000  C
  C72      1.0000 0.21661  0.81649  0.12500  Biso   1.000  C
  N13      1.0000 0.11432  0.18043  0.12500  Biso   1.000  N
  N14      1.0000 0.81957  0.93389  0.12500  Biso   1.000  N
  N15      1.0000 0.06611  0.88568  0.12500  Biso   1.000  N
  N16      1.0000 0.88568  0.81957  0.37500  Biso   1.000  N
  N17      1.0000 0.18043  0.06611  0.37500  Biso   1.000  N
  N18      1.0000 0.93389  0.11432  0.37500  Biso   1.000  N
  C73      1.0000 0.10904  0.21999  0.12500  Biso   1.000  C
  C74      1.0000 0.78001  0.88905  0.12500  Biso   1.000  C
  C75      1.0000 0.11095  0.89096  0.12500  Biso   1.000  C
  C76      1.0000 0.89096  0.78001  0.37500  Biso   1.000  C
  C77      1.0000 0.21999  0.11095  0.37500  Biso   1.000  C
  C78      1.0000 0.88905  0.10904  0.37500  Biso   1.000  C
  C79      1.0000 0.23603  0.36593  0.12500  Biso   1.000  C
  C80      1.0000 0.63407  0.87010  0.12500  Biso   1.000  C
  C81      1.0000 0.12990  0.76397  0.12500  Biso   1.000  C
  C82      1.0000 0.76397  0.63407  0.37500  Biso   1.000  C
  C83      1.0000 0.36593  0.12990  0.37500  Biso   1.000  C
  C84      1.0000 0.87010  0.23603  0.37500  Biso   1.000  C
  C85      1.0000 0.27051  0.45252  0.12500  Biso   1.000  C
  C86      1.0000 0.54748  0.81799  0.12500  Biso   1.000  C
  C87      1.0000 0.18201  0.72949  0.12500  Biso   1.000  C
  C88      1.0000 0.72949  0.54748  0.37500  Biso   1.000  C
  C89      1.0000 0.45252  0.18201  0.37500  Biso   1.000  C
  C90      1.0000 0.81799  0.27051  0.37500  Biso   1.000  C
  N19      1.0000 0.30944  0.49778  0.12500  Biso   1.000  N
  N20      1.0000 0.50222  0.81166  0.12500  Biso   1.000  N
  N21      1.0000 0.18834  0.69056  0.12500  Biso   1.000  N
  N22      1.0000 0.69056  0.50222  0.37500  Biso   1.000  N
  N23      1.0000 0.49778  0.18834  0.37500  Biso   1.000  N
  N24      1.0000 0.81166  0.30944  0.37500  Biso   1.000  N
  C91      1.0000 0.30403  0.53733  0.12500  Biso   1.000  C
  C92      1.0000 0.46267  0.76670  0.12500  Biso   1.000  C
  C93      1.0000 0.23330  0.69597  0.12500  Biso   1.000  C
  C94      1.0000 0.69597  0.46267  0.37500  Biso   1.000  C
  C95      1.0000 0.53733  0.23330  0.37500  Biso   1.000  C
  C96      1.0000 0.76670  0.30403  0.37500  Biso   1.000  C
  C97      1.0000 0.34413  0.58341  0.12500  Biso   1.000  C
  C98      1.0000 0.41659  0.76072  0.12500  Biso   1.000  C
  C99      1.0000 0.23928  0.65587  0.12500  Biso   1.000  C
  C100     1.0000 0.65587  0.41659  0.37500  Biso   1.000  C
  C101     1.0000 0.58341  0.23928  0.37500  Biso   1.000  C
  C102     1.0000 0.76072  0.34413  0.37500  Biso   1.000  C
  C103     1.0000 0.33949  0.62541  0.12500  Biso   1.000  C
  C104     1.0000 0.37459  0.71408  0.12500  Biso   1.000  C
  C105     1.0000 0.28592  0.66051  0.12500  Biso   1.000  C
  C106     1.0000 0.66051  0.37459  0.37500  Biso   1.000  C
  C107     1.0000 0.62541  0.28592  0.37500  Biso   1.000  C
  C108     1.0000 0.71408  0.33949  0.37500  Biso   1.000  C
  C109     1.0000 0.07534  0.13516  0.12500  Biso   1.000  C
  C110     1.0000 0.86484  0.94018  0.12500  Biso   1.000  C
  C111     1.0000 0.05982  0.92466  0.12500  Biso   1.000  C
  C112     1.0000 0.92466  0.86484  0.37500  Biso   1.000  C
  C113     1.0000 0.13516  0.05982  0.37500  Biso   1.000  C
  C114     1.0000 0.94018  0.07534  0.37500  Biso   1.000  C
  C115     1.0000 0.08136  0.09514  0.12500  Biso   1.000  C
  C116     1.0000 0.90486  0.98622  0.12500  Biso   1.000  C
  C117     1.0000 0.01378  0.91864  0.12500  Biso   1.000  C
  C118     1.0000 0.91864  0.90486  0.37500  Biso   1.000  C
  C119     1.0000 0.09514  0.01378  0.37500  Biso   1.000  C
  C120     1.0000 0.98622  0.08136  0.37500  Biso   1.000  C
  C121     1.0000 0.04740  0.00623  0.12500  Biso   1.000  C
  C122     1.0000 0.99377  0.04117  0.12500  Biso   1.000  C
  C123     1.0000 0.95883  0.95260  0.12500  Biso   1.000  C
  C124     1.0000 0.95260  0.99377  0.37500  Biso   1.000  C
  C125     1.0000 0.00623  0.95883  0.37500  Biso   1.000  C
  C126     1.0000 0.04117  0.04740  0.37500  Biso   1.000  C
  H13      1.0000 0.18400  0.26824  0.12500  Biso   1.000  H
  H14      1.0000 0.73176  0.91576  0.12500  Biso   1.000  H
  H15      1.0000 0.08424  0.81600  0.12500  Biso   1.000  H
  H16      1.0000 0.81600  0.73176  0.37500  Biso   1.000  H
  H17      1.0000 0.26824  0.08424  0.37500  Biso   1.000  H
  H18      1.0000 0.91576  0.18400  0.37500  Biso   1.000  H
  H19      1.0000 0.37823  0.58453  0.12500  Biso   1.000  H
  H20      1.0000 0.41547  0.79370  0.12500  Biso   1.000  H
  H21      1.0000 0.20630  0.62177  0.12500  Biso   1.000  H
  H22      1.0000 0.62177  0.41547  0.37500  Biso   1.000  H
  H23      1.0000 0.58453  0.20630  0.37500  Biso   1.000  H
  H24      1.0000 0.79370  0.37823  0.37500  Biso   1.000  H
  C127     1.0000 0.73371  0.88317  0.12500  Biso   1.000  C
  C128     1.0000 0.11683  0.85054  0.12500  Biso   1.000  C
  C129     1.0000 0.14946  0.26629  0.12500  Biso   1.000  C
  C130     1.0000 0.26629  0.11683  0.37500  Biso   1.000  C
  C131     1.0000 0.88317  0.14946  0.37500  Biso   1.000  C
  C132     1.0000 0.85054  0.73371  0.37500  Biso   1.000  C
  C133     1.0000 0.69201  0.83659  0.12500  Biso   1.000  C
  C134     1.0000 0.16341  0.85542  0.12500  Biso   1.000  C
  C135     1.0000 0.14458  0.30799  0.12500  Biso   1.000  C
  C136     1.0000 0.30799  0.16341  0.37500  Biso   1.000  C
  C137     1.0000 0.83659  0.14458  0.37500  Biso   1.000  C
  C138     1.0000 0.85542  0.69201  0.37500  Biso   1.000  C
  C139     1.0000 0.58770  0.86406  0.12500  Biso   1.000  C
  C140     1.0000 0.13594  0.72364  0.12500  Biso   1.000  C
  C141     1.0000 0.27636  0.41230  0.12500  Biso   1.000  C
  C142     1.0000 0.41230  0.13594  0.37500  Biso   1.000  C
  C143     1.0000 0.86406  0.27636  0.37500  Biso   1.000  C
  C144     1.0000 0.72364  0.58770  0.37500  Biso   1.000  C
  H25      1.0000 0.24361  0.33679  0.12500  Biso   1.000  H
  H26      1.0000 0.66321  0.90682  0.12500  Biso   1.000  H
  H27      1.0000 0.09318  0.75639  0.12500  Biso   1.000  H
  H28      1.0000 0.75639  0.66321  0.37500  Biso   1.000  H
  H29      1.0000 0.33679  0.09318  0.37500  Biso   1.000  H
  H30      1.0000 0.90682  0.24361  0.37500  Biso   1.000  H
  H31      1.0000 0.31221  0.41678  0.12500  Biso   1.000  H
  H32      1.0000 0.58322  0.89543  0.12500  Biso   1.000  H
  H33      1.0000 0.10457  0.68779  0.12500  Biso   1.000  H
  H34      1.0000 0.68779  0.58322  0.37500  Biso   1.000  H
  H35      1.0000 0.41678  0.10457  0.37500  Biso   1.000  H
  H36      1.0000 0.89543  0.31221  0.37500  Biso   1.000  H
  H37      1.0000 0.14896  0.39815  0.12500  Biso   1.000  H
  H38      1.0000 0.60185  0.75081  0.12500  Biso   1.000  H
  H39      1.0000 0.24919  0.85104  0.12500  Biso   1.000  H
  H40      1.0000 0.85104  0.60185  0.37500  Biso   1.000  H
  H41      1.0000 0.39815  0.24919  0.37500  Biso   1.000  H
  H42      1.0000 0.75081  0.14896  0.37500  Biso   1.000  H
  H43      1.0000 0.08932  0.32957  0.12500  Biso   1.000  H
  H44      1.0000 0.67043  0.75975  0.12500  Biso   1.000  H
  H45      1.0000 0.24025  0.91068  0.12500  Biso   1.000  H
  H46      1.0000 0.91068  0.67043  0.37500  Biso   1.000  H
  H47      1.0000 0.32957  0.24025  0.37500  Biso   1.000  H
  H48      1.0000 0.75975  0.08932  0.37500  Biso   1.000  H
  H49      1.0000 0.02071  0.24953  0.12500  Biso   1.000  H
  H50      1.0000 0.75047  0.77118  0.12500  Biso   1.000  H
  H51      1.0000 0.22882  0.97929  0.12500  Biso   1.000  H
  H52      1.0000 0.97929  0.75047  0.37500  Biso   1.000  H
  H53      1.0000 0.24953  0.22882  0.37500  Biso   1.000  H
  H54      1.0000 0.77118  0.02071  0.37500  Biso   1.000  H
  H55      1.0000 0.11823  0.10328  0.12500  Biso   1.000  H
  H56      1.0000 0.89672  0.01495  0.12500  Biso   1.000  H
  H57      1.0000 0.98505  0.88177  0.12500  Biso   1.000  H
  H58      1.0000 0.88177  0.89672  0.37500  Biso   1.000  H
  H59      1.0000 0.10328  0.98505  0.37500  Biso   1.000  H
  H60      1.0000 0.01495  0.11823  0.37500  Biso   1.000  H
  N25      1.0000 0.16860  0.14502  0.87500  Biso   1.000  N
  N26      1.0000 0.85498  0.02358  0.87500  Biso   1.000  N
  N27      1.0000 0.97642  0.83140  0.87500  Biso   1.000  N
  N28      1.0000 0.83140  0.85498  0.62500  Biso   1.000  N
  N29      1.0000 0.14502  0.97642  0.62500  Biso   1.000  N
  N30      1.0000 0.02358  0.16860  0.62500  Biso   1.000  N
  C145     1.0000 0.21387  0.15140  0.87500  Biso   1.000  C
  C146     1.0000 0.84860  0.06247  0.87500  Biso   1.000  C
  C147     1.0000 0.93753  0.78613  0.87500  Biso   1.000  C
  C148     1.0000 0.78613  0.84860  0.62500  Biso   1.000  C
  C149     1.0000 0.15140  0.93753  0.62500  Biso   1.000  C
  C150     1.0000 0.06247  0.21387  0.62500  Biso   1.000  C
  C151     1.0000 0.35839  0.17003  0.87500  Biso   1.000  C
  C152     1.0000 0.82997  0.18836  0.87500  Biso   1.000  C
  C153     1.0000 0.81164  0.64161  0.87500  Biso   1.000  C
  C154     1.0000 0.64161  0.82997  0.62500  Biso   1.000  C
  C155     1.0000 0.17003  0.81164  0.62500  Biso   1.000  C
  C156     1.0000 0.18836  0.35839  0.62500  Biso   1.000  C
  C157     1.0000 0.44643  0.22247  0.87500  Biso   1.000  C
  C158     1.0000 0.77753  0.22396  0.87500  Biso   1.000  C
  C159     1.0000 0.77604  0.55357  0.87500  Biso   1.000  C
  C160     1.0000 0.55357  0.77753  0.62500  Biso   1.000  C
  C161     1.0000 0.22247  0.77604  0.62500  Biso   1.000  C
  C162     1.0000 0.22396  0.44643  0.62500  Biso   1.000  C
  N31      1.0000 0.48605  0.26731  0.87500  Biso   1.000  N
  N32      1.0000 0.73269  0.21874  0.87500  Biso   1.000  N
  N33      1.0000 0.78126  0.51395  0.87500  Biso   1.000  N
  N34      1.0000 0.51395  0.73269  0.62500  Biso   1.000  N
  N35      1.0000 0.26731  0.78126  0.62500  Biso   1.000  N
  N36      1.0000 0.21874  0.48605  0.62500  Biso   1.000  N
  C163     1.0000 0.53134  0.27357  0.87500  Biso   1.000  C
  C164     1.0000 0.72643  0.25777  0.87500  Biso   1.000  C
  C165     1.0000 0.74223  0.46866  0.87500  Biso   1.000  C
  C166     1.0000 0.46866  0.72643  0.62500  Biso   1.000  C
  C167     1.0000 0.27357  0.74223  0.62500  Biso   1.000  C
  C168     1.0000 0.25777  0.53134  0.62500  Biso   1.000  C
  C169     1.0000 0.57147  0.31964  0.87500  Biso   1.000  C
  C170     1.0000 0.68036  0.25183  0.87500  Biso   1.000  C
  C171     1.0000 0.74817  0.42853  0.87500  Biso   1.000  C
  C172     1.0000 0.42853  0.68036  0.62500  Biso   1.000  C
  C173     1.0000 0.31964  0.74817  0.62500  Biso   1.000  C
  C174     1.0000 0.25183  0.57147  0.62500  Biso   1.000  C
  C175     1.0000 0.61927  0.32721  0.87500  Biso   1.000  C
  C176     1.0000 0.67279  0.29206  0.87500  Biso   1.000  C
  C177     1.0000 0.70794  0.38073  0.87500  Biso   1.000  C
  C178     1.0000 0.38073  0.67279  0.62500  Biso   1.000  C
  C179     1.0000 0.32721  0.70794  0.62500  Biso   1.000  C
  C180     1.0000 0.29206  0.61927  0.62500  Biso   1.000  C
  C181     1.0000 0.12913  0.10006  0.87500  Biso   1.000  C
  C182     1.0000 0.89994  0.02907  0.87500  Biso   1.000  C
  C183     1.0000 0.97093  0.87087  0.87500  Biso   1.000  C
  C184     1.0000 0.87087  0.89994  0.62500  Biso   1.000  C
  C185     1.0000 0.10006  0.97093  0.62500  Biso   1.000  C
  C186     1.0000 0.02907  0.12913  0.62500  Biso   1.000  C
  C187     1.0000 0.08308  0.09405  0.87500  Biso   1.000  C
  C188     1.0000 0.90595  0.98903  0.87500  Biso   1.000  C
  C189     1.0000 0.01097  0.91692  0.87500  Biso   1.000  C
  C190     1.0000 0.91692  0.90595  0.62500  Biso   1.000  C
  C191     1.0000 0.09405  0.01097  0.62500  Biso   1.000  C
  C192     1.0000 0.98903  0.08308  0.62500  Biso   1.000  C
  C193     1.0000 0.99383  0.04120  0.87500  Biso   1.000  C
  C194     1.0000 0.95880  0.95263  0.87500  Biso   1.000  C
  C195     1.0000 0.04737  0.00617  0.87500  Biso   1.000  C
  C196     1.0000 0.00617  0.95880  0.62500  Biso   1.000  C
  C197     1.0000 0.04120  0.04737  0.62500  Biso   1.000  C
  C198     1.0000 0.95263  0.99383  0.62500  Biso   1.000  C
  H61      1.0000 0.08194  0.12701  0.87500  Biso   1.000  H
  H62      1.0000 0.87299  0.95493  0.87500  Biso   1.000  H
  H63      1.0000 0.04507  0.91806  0.87500  Biso   1.000  H
  H64      1.0000 0.91806  0.87299  0.62500  Biso   1.000  H
  H65      1.0000 0.12701  0.04507  0.62500  Biso   1.000  H
  H66      1.0000 0.95493  0.08194  0.62500  Biso   1.000  H
  H67      1.0000 0.56340  0.34842  0.87500  Biso   1.000  H
  H68      1.0000 0.65158  0.21498  0.87500  Biso   1.000  H
  H69      1.0000 0.78502  0.43660  0.87500  Biso   1.000  H
  H70      1.0000 0.43660  0.65158  0.62500  Biso   1.000  H
  H71      1.0000 0.34842  0.78502  0.62500  Biso   1.000  H
  H72      1.0000 0.21498  0.56340  0.62500  Biso   1.000  H
  C199     1.0000 0.94342  0.74595  0.87500  Biso   1.000  C
  C200     1.0000 0.25405  0.19747  0.87500  Biso   1.000  C
  C201     1.0000 0.80253  0.05658  0.87500  Biso   1.000  C
  C202     1.0000 0.05658  0.25405  0.62500  Biso   1.000  C
  C203     1.0000 0.74595  0.80253  0.62500  Biso   1.000  C
  C204     1.0000 0.19747  0.94342  0.62500  Biso   1.000  C
  C205     1.0000 0.90310  0.69957  0.87500  Biso   1.000  C
  C206     1.0000 0.30043  0.20353  0.87500  Biso   1.000  C
  C207     1.0000 0.79647  0.09690  0.87500  Biso   1.000  C
  C208     1.0000 0.09690  0.30043  0.62500  Biso   1.000  C
  C209     1.0000 0.69957  0.79647  0.62500  Biso   1.000  C
  C210     1.0000 0.20353  0.90310  0.62500  Biso   1.000  C
  C211     1.0000 0.81649  0.59988  0.87500  Biso   1.000  C
  C212     1.0000 0.40012  0.21661  0.87500  Biso   1.000  C
  C213     1.0000 0.78339  0.18351  0.87500  Biso   1.000  C
  C214     1.0000 0.18351  0.40012  0.62500  Biso   1.000  C
  C215     1.0000 0.59988  0.78339  0.62500  Biso   1.000  C
  C216     1.0000 0.21661  0.81649  0.62500  Biso   1.000  C
  N37      1.0000 0.11432  0.18043  0.62500  Biso   1.000  N
  N38      1.0000 0.81957  0.93389  0.62500  Biso   1.000  N
  N39      1.0000 0.06611  0.88568  0.62500  Biso   1.000  N
  N40      1.0000 0.88568  0.81957  0.87500  Biso   1.000  N
  N41      1.0000 0.18043  0.06611  0.87500  Biso   1.000  N
  N42      1.0000 0.93389  0.11432  0.87500  Biso   1.000  N
  C217     1.0000 0.10904  0.21999  0.62500  Biso   1.000  C
  C218     1.0000 0.78001  0.88905  0.62500  Biso   1.000  C
  C219     1.0000 0.11095  0.89096  0.62500  Biso   1.000  C
  C220     1.0000 0.89096  0.78001  0.87500  Biso   1.000  C
  C221     1.0000 0.21999  0.11095  0.87500  Biso   1.000  C
  C222     1.0000 0.88905  0.10904  0.87500  Biso   1.000  C
  C223     1.0000 0.23603  0.36593  0.62500  Biso   1.000  C
  C224     1.0000 0.63407  0.87010  0.62500  Biso   1.000  C
  C225     1.0000 0.12990  0.76397  0.62500  Biso   1.000  C
  C226     1.0000 0.76397  0.63407  0.87500  Biso   1.000  C
  C227     1.0000 0.36593  0.12990  0.87500  Biso   1.000  C
  C228     1.0000 0.87010  0.23603  0.87500  Biso   1.000  C
  C229     1.0000 0.27051  0.45252  0.62500  Biso   1.000  C
  C230     1.0000 0.54748  0.81799  0.62500  Biso   1.000  C
  C231     1.0000 0.18201  0.72949  0.62500  Biso   1.000  C
  C232     1.0000 0.72949  0.54748  0.87500  Biso   1.000  C
  C233     1.0000 0.45252  0.18201  0.87500  Biso   1.000  C
  C234     1.0000 0.81799  0.27051  0.87500  Biso   1.000  C
  N43      1.0000 0.30944  0.49778  0.62500  Biso   1.000  N
  N44      1.0000 0.50222  0.81166  0.62500  Biso   1.000  N
  N45      1.0000 0.18834  0.69056  0.62500  Biso   1.000  N
  N46      1.0000 0.69056  0.50222  0.87500  Biso   1.000  N
  N47      1.0000 0.49778  0.18834  0.87500  Biso   1.000  N
  N48      1.0000 0.81166  0.30944  0.87500  Biso   1.000  N
  C235     1.0000 0.30403  0.53733  0.62500  Biso   1.000  C
  C236     1.0000 0.46267  0.76670  0.62500  Biso   1.000  C
  C237     1.0000 0.23330  0.69597  0.62500  Biso   1.000  C
  C238     1.0000 0.69597  0.46267  0.87500  Biso   1.000  C
  C239     1.0000 0.53733  0.23330  0.87500  Biso   1.000  C
  C240     1.0000 0.76670  0.30403  0.87500  Biso   1.000  C
  C241     1.0000 0.34413  0.58341  0.62500  Biso   1.000  C
  C242     1.0000 0.41659  0.76072  0.62500  Biso   1.000  C
  C243     1.0000 0.23928  0.65587  0.62500  Biso   1.000  C
  C244     1.0000 0.65587  0.41659  0.87500  Biso   1.000  C
  C245     1.0000 0.58341  0.23928  0.87500  Biso   1.000  C
  C246     1.0000 0.76072  0.34413  0.87500  Biso   1.000  C
  C247     1.0000 0.33949  0.62541  0.62500  Biso   1.000  C
  C248     1.0000 0.37459  0.71408  0.62500  Biso   1.000  C
  C249     1.0000 0.28592  0.66051  0.62500  Biso   1.000  C
  C250     1.0000 0.66051  0.37459  0.87500  Biso   1.000  C
  C251     1.0000 0.62541  0.28592  0.87500  Biso   1.000  C
  C252     1.0000 0.71408  0.33949  0.87500  Biso   1.000  C
  C253     1.0000 0.07534  0.13516  0.62500  Biso   1.000  C
  C254     1.0000 0.86484  0.94018  0.62500  Biso   1.000  C
  C255     1.0000 0.05982  0.92466  0.62500  Biso   1.000  C
  C256     1.0000 0.92466  0.86484  0.87500  Biso   1.000  C
  C257     1.0000 0.13516  0.05982  0.87500  Biso   1.000  C
  C258     1.0000 0.94018  0.07534  0.87500  Biso   1.000  C
  C259     1.0000 0.08136  0.09514  0.62500  Biso   1.000  C
  C260     1.0000 0.90486  0.98622  0.62500  Biso   1.000  C
  C261     1.0000 0.01378  0.91864  0.62500  Biso   1.000  C
  C262     1.0000 0.91864  0.90486  0.87500  Biso   1.000  C
  C263     1.0000 0.09514  0.01378  0.87500  Biso   1.000  C
  C264     1.0000 0.98622  0.08136  0.87500  Biso   1.000  C
  C265     1.0000 0.04740  0.00623  0.62500  Biso   1.000  C
  C266     1.0000 0.99377  0.04117  0.62500  Biso   1.000  C
  C267     1.0000 0.95883  0.95260  0.62500  Biso   1.000  C
  C268     1.0000 0.95260  0.99377  0.87500  Biso   1.000  C
  C269     1.0000 0.00623  0.95883  0.87500  Biso   1.000  C
  C270     1.0000 0.04117  0.04740  0.87500  Biso   1.000  C
  H73      1.0000 0.18400  0.26824  0.62500  Biso   1.000  H
  H74      1.0000 0.73176  0.91576  0.62500  Biso   1.000  H
  H75      1.0000 0.08424  0.81600  0.62500  Biso   1.000  H
  H76      1.0000 0.81600  0.73176  0.87500  Biso   1.000  H
  H77      1.0000 0.26824  0.08424  0.87500  Biso   1.000  H
  H78      1.0000 0.91576  0.18400  0.87500  Biso   1.000  H
  H79      1.0000 0.37823  0.58453  0.62500  Biso   1.000  H
  H80      1.0000 0.41547  0.79370  0.62500  Biso   1.000  H
  H81      1.0000 0.20630  0.62177  0.62500  Biso   1.000  H
  H82      1.0000 0.62177  0.41547  0.87500  Biso   1.000  H
  H83      1.0000 0.58453  0.20630  0.87500  Biso   1.000  H
  H84      1.0000 0.79370  0.37823  0.87500  Biso   1.000  H
  C271     1.0000 0.73371  0.88317  0.62500  Biso   1.000  C
  C272     1.0000 0.11683  0.85054  0.62500  Biso   1.000  C
  C273     1.0000 0.14946  0.26629  0.62500  Biso   1.000  C
  C274     1.0000 0.26629  0.11683  0.87500  Biso   1.000  C
  C275     1.0000 0.88317  0.14946  0.87500  Biso   1.000  C
  C276     1.0000 0.85054  0.73371  0.87500  Biso   1.000  C
  C277     1.0000 0.69201  0.83659  0.62500  Biso   1.000  C
  C278     1.0000 0.16341  0.85542  0.62500  Biso   1.000  C
  C279     1.0000 0.14458  0.30799  0.62500  Biso   1.000  C
  C280     1.0000 0.30799  0.16341  0.87500  Biso   1.000  C
  C281     1.0000 0.83659  0.14458  0.87500  Biso   1.000  C
  C282     1.0000 0.85542  0.69201  0.87500  Biso   1.000  C
  C283     1.0000 0.58770  0.86406  0.62500  Biso   1.000  C
  C284     1.0000 0.13594  0.72364  0.62500  Biso   1.000  C
  C285     1.0000 0.27636  0.41230  0.62500  Biso   1.000  C
  C286     1.0000 0.41230  0.13594  0.87500  Biso   1.000  C
  C287     1.0000 0.86406  0.27636  0.87500  Biso   1.000  C
  C288     1.0000 0.72364  0.58770  0.87500  Biso   1.000  C
  H85      1.0000 0.24361  0.33679  0.62500  Biso   1.000  H
  H86      1.0000 0.66321  0.90682  0.62500  Biso   1.000  H
  H87      1.0000 0.09318  0.75639  0.62500  Biso   1.000  H
  H88      1.0000 0.75639  0.66321  0.87500  Biso   1.000  H
  H89      1.0000 0.33679  0.09318  0.87500  Biso   1.000  H
  H90      1.0000 0.90682  0.24361  0.87500  Biso   1.000  H
  H91      1.0000 0.31221  0.41678  0.62500  Biso   1.000  H
  H92      1.0000 0.58322  0.89543  0.62500  Biso   1.000  H
  H93      1.0000 0.10457  0.68779  0.62500  Biso   1.000  H
  H94      1.0000 0.68779  0.58322  0.87500  Biso   1.000  H
  H95      1.0000 0.41678  0.10457  0.87500  Biso   1.000  H
  H96      1.0000 0.89543  0.31221  0.87500  Biso   1.000  H
  H97      1.0000 0.14896  0.39815  0.62500  Biso   1.000  H
  H98      1.0000 0.60185  0.75081  0.62500  Biso   1.000  H
  H99      1.0000 0.24919  0.85104  0.62500  Biso   1.000  H
  H100     1.0000 0.85104  0.60185  0.87500  Biso   1.000  H
  H101     1.0000 0.39815  0.24919  0.87500  Biso   1.000  H
  H102     1.0000 0.75081  0.14896  0.87500  Biso   1.000  H
  H103     1.0000 0.08932  0.32957  0.62500  Biso   1.000  H
  H104     1.0000 0.67043  0.75975  0.62500  Biso   1.000  H
  H105     1.0000 0.24025  0.91068  0.62500  Biso   1.000  H
  H106     1.0000 0.91068  0.67043  0.87500  Biso   1.000  H
  H107     1.0000 0.32957  0.24025  0.87500  Biso   1.000  H
  H108     1.0000 0.75975  0.08932  0.87500  Biso   1.000  H
  H109     1.0000 0.02071  0.24953  0.62500  Biso   1.000  H
  H110     1.0000 0.75047  0.77118  0.62500  Biso   1.000  H
  H111     1.0000 0.22882  0.97929  0.62500  Biso   1.000  H
  H112     1.0000 0.97929  0.75047  0.87500  Biso   1.000  H
  H113     1.0000 0.24953  0.22882  0.87500  Biso   1.000  H
  H114     1.0000 0.77118  0.02071  0.87500  Biso   1.000  H
  H115     1.0000 0.11823  0.10328  0.62500  Biso   1.000  H
  H116     1.0000 0.89672  0.01495  0.62500  Biso   1.000  H
  H117     1.0000 0.98505  0.88177  0.62500  Biso   1.000  H
  H118     1.0000 0.88177  0.89672  0.87500  Biso   1.000  H
  H119     1.0000 0.10328  0.98505  0.87500  Biso   1.000  H
  H120     1.0000 0.01495  0.11823  0.87500  Biso   1.000  H
