data_image0
_cell_length_a       25.184
_cell_length_b       25.184
_cell_length_c       6.878
_cell_angle_alpha    90
_cell_angle_beta     90
_cell_angle_gamma    120

_symmetry_space_group_name_H-M    "P 1"
_symmetry_int_tables_number       1

loop_
  _symmetry_equiv_pos_as_xyz
  'x, y, z'

loop_
  _atom_site_label
  _atom_site_occupancy
  _atom_site_fract_x
  _atom_site_fract_y
  _atom_site_fract_z
  _atom_site_thermal_displace_type
  _atom_site_B_iso_or_equiv
  _atom_site_type_symbol
  O1       1.0000 0.22343  0.16610  0.37500  Biso   1.000  O
  O2       1.0000 0.83390  0.05733  0.37500  Biso   1.000  O
  O3       1.0000 0.94267  0.77657  0.37500  Biso   1.000  O
  O4       1.0000 0.77657  0.83390  0.12500  Biso   1.000  O
  O5       1.0000 0.16610  0.94267  0.12500  Biso   1.000  O
  O6       1.0000 0.05733  0.22343  0.12500  Biso   1.000  O
  O7       1.0000 0.16610  0.22343  0.12500  Biso   1.000  O
  O8       1.0000 0.05733  0.83390  0.12500  Biso   1.000  O
  O9       1.0000 0.77657  0.94267  0.12500  Biso   1.000  O
  O10      1.0000 0.83390  0.77657  0.37500  Biso   1.000  O
  O11      1.0000 0.94267  0.16610  0.37500  Biso   1.000  O
  O12      1.0000 0.22343  0.05733  0.37500  Biso   1.000  O
  C1       1.0000 0.27775  0.16690  0.37500  Biso   1.000  C
  C2       1.0000 0.83310  0.11085  0.37500  Biso   1.000  C
  C3       1.0000 0.88915  0.72225  0.37500  Biso   1.000  C
  C4       1.0000 0.72225  0.83310  0.12500  Biso   1.000  C
  C5       1.0000 0.16690  0.88915  0.12500  Biso   1.000  C
  C6       1.0000 0.11085  0.27775  0.12500  Biso   1.000  C
  C7       1.0000 0.16690  0.27775  0.12500  Biso   1.000  C
  C8       1.0000 0.11085  0.83310  0.12500  Biso   1.000  C
  C9       1.0000 0.72225  0.88915  0.12500  Biso   1.000  C
  C10      1.0000 0.83310  0.72225  0.37500  Biso   1.000  C
  C11      1.0000 0.88915  0.16690  0.37500  Biso   1.000  C
  C12      1.0000 0.27775  0.11085  0.37500  Biso   1.000  C
  C13      1.0000 0.33318  0.22254  0.37500  Biso   1.000  C
  C14      1.0000 0.77746  0.11064  0.37500  Biso   1.000  C
  C15      1.0000 0.88936  0.66682  0.37500  Biso   1.000  C
  C16      1.0000 0.66682  0.77746  0.12500  Biso   1.000  C
  C17      1.0000 0.22254  0.88936  0.12500  Biso   1.000  C
  C18      1.0000 0.11064  0.33318  0.12500  Biso   1.000  C
  C19      1.0000 0.22254  0.33318  0.12500  Biso   1.000  C
  C20      1.0000 0.11064  0.77746  0.12500  Biso   1.000  C
  C21      1.0000 0.66682  0.88936  0.12500  Biso   1.000  C
  C22      1.0000 0.77746  0.66682  0.37500  Biso   1.000  C
  C23      1.0000 0.88936  0.22254  0.37500  Biso   1.000  C
  C24      1.0000 0.33318  0.11064  0.37500  Biso   1.000  C
  C25      1.0000 0.33317  0.26555  0.37500  Biso   1.000  C
  C26      1.0000 0.73445  0.06762  0.37500  Biso   1.000  C
  C27      1.0000 0.93238  0.66683  0.37500  Biso   1.000  C
  C28      1.0000 0.66683  0.73445  0.12500  Biso   1.000  C
  C29      1.0000 0.26555  0.93238  0.12500  Biso   1.000  C
  C30      1.0000 0.06762  0.33317  0.12500  Biso   1.000  C
  C31      1.0000 0.26555  0.33317  0.12500  Biso   1.000  C
  C32      1.0000 0.06762  0.73445  0.12500  Biso   1.000  C
  C33      1.0000 0.66683  0.93238  0.12500  Biso   1.000  C
  C34      1.0000 0.73445  0.66683  0.37500  Biso   1.000  C
  C35      1.0000 0.93238  0.26555  0.37500  Biso   1.000  C
  C36      1.0000 0.33317  0.06762  0.37500  Biso   1.000  C
  C37      1.0000 0.38863  0.22234  0.37500  Biso   1.000  C
  C38      1.0000 0.77766  0.16629  0.37500  Biso   1.000  C
  C39      1.0000 0.83371  0.61137  0.37500  Biso   1.000  C
  C40      1.0000 0.61137  0.77766  0.12500  Biso   1.000  C
  C41      1.0000 0.22234  0.83371  0.12500  Biso   1.000  C
  C42      1.0000 0.16629  0.38863  0.12500  Biso   1.000  C
  C43      1.0000 0.22234  0.38863  0.12500  Biso   1.000  C
  C44      1.0000 0.16629  0.77766  0.12500  Biso   1.000  C
  C45      1.0000 0.61137  0.83371  0.12500  Biso   1.000  C
  C46      1.0000 0.77766  0.61137  0.37500  Biso   1.000  C
  C47      1.0000 0.83371  0.22234  0.37500  Biso   1.000  C
  C48      1.0000 0.38863  0.16629  0.37500  Biso   1.000  C
  O13      1.0000 0.44298  0.27587  0.37500  Biso   1.000  O
  O14      1.0000 0.72413  0.16711  0.37500  Biso   1.000  O
  O15      1.0000 0.83289  0.55702  0.37500  Biso   1.000  O
  O16      1.0000 0.55702  0.72413  0.12500  Biso   1.000  O
  O17      1.0000 0.27587  0.83289  0.12500  Biso   1.000  O
  O18      1.0000 0.16711  0.44298  0.12500  Biso   1.000  O
  O19      1.0000 0.27587  0.44298  0.12500  Biso   1.000  O
  O20      1.0000 0.16711  0.72413  0.12500  Biso   1.000  O
  O21      1.0000 0.55702  0.83289  0.12500  Biso   1.000  O
  O22      1.0000 0.72413  0.55702  0.37500  Biso   1.000  O
  O23      1.0000 0.83289  0.27587  0.37500  Biso   1.000  O
  O24      1.0000 0.44298  0.16711  0.37500  Biso   1.000  O
  C49      1.0000 0.49724  0.27633  0.37500  Biso   1.000  C
  C50      1.0000 0.72367  0.22091  0.37500  Biso   1.000  C
  C51      1.0000 0.77909  0.50276  0.37500  Biso   1.000  C
  C52      1.0000 0.50276  0.72367  0.12500  Biso   1.000  C
  C53      1.0000 0.27633  0.77909  0.12500  Biso   1.000  C
  C54      1.0000 0.22091  0.49724  0.12500  Biso   1.000  C
  C55      1.0000 0.27633  0.49724  0.12500  Biso   1.000  C
  C56      1.0000 0.22091  0.72367  0.12500  Biso   1.000  C
  C57      1.0000 0.50276  0.77909  0.12500  Biso   1.000  C
  C58      1.0000 0.72367  0.50276  0.37500  Biso   1.000  C
  C59      1.0000 0.77909  0.27633  0.37500  Biso   1.000  C
  C60      1.0000 0.49724  0.22091  0.37500  Biso   1.000  C
  C61      1.0000 0.55244  0.33148  0.37500  Biso   1.000  C
  C62      1.0000 0.66852  0.22096  0.37500  Biso   1.000  C
  C63      1.0000 0.77904  0.44756  0.37500  Biso   1.000  C
  C64      1.0000 0.44756  0.66852  0.12500  Biso   1.000  C
  C65      1.0000 0.33148  0.77904  0.12500  Biso   1.000  C
  C66      1.0000 0.22096  0.55244  0.12500  Biso   1.000  C
  C67      1.0000 0.33148  0.55244  0.12500  Biso   1.000  C
  C68      1.0000 0.22096  0.66852  0.12500  Biso   1.000  C
  C69      1.0000 0.44756  0.77904  0.12500  Biso   1.000  C
  C70      1.0000 0.66852  0.44756  0.37500  Biso   1.000  C
  C71      1.0000 0.77904  0.33148  0.37500  Biso   1.000  C
  C72      1.0000 0.55244  0.22096  0.37500  Biso   1.000  C
  C73      1.0000 0.60992  0.33335  0.37500  Biso   1.000  C
  C74      1.0000 0.66665  0.27657  0.37500  Biso   1.000  C
  C75      1.0000 0.72343  0.39008  0.37500  Biso   1.000  C
  C76      1.0000 0.39008  0.66665  0.12500  Biso   1.000  C
  C77      1.0000 0.33335  0.72343  0.12500  Biso   1.000  C
  C78      1.0000 0.27657  0.60992  0.12500  Biso   1.000  C
  C79      1.0000 0.33335  0.60992  0.12500  Biso   1.000  C
  C80      1.0000 0.27657  0.66665  0.12500  Biso   1.000  C
  C81      1.0000 0.39008  0.72343  0.12500  Biso   1.000  C
  C82      1.0000 0.66665  0.39008  0.37500  Biso   1.000  C
  C83      1.0000 0.72343  0.33335  0.37500  Biso   1.000  C
  C84      1.0000 0.60992  0.27657  0.37500  Biso   1.000  C
  C85      1.0000 0.16922  0.11231  0.37500  Biso   1.000  C
  C86      1.0000 0.88769  0.05691  0.37500  Biso   1.000  C
  C87      1.0000 0.94309  0.83078  0.37500  Biso   1.000  C
  C88      1.0000 0.83078  0.88769  0.12500  Biso   1.000  C
  C89      1.0000 0.11231  0.94309  0.12500  Biso   1.000  C
  C90      1.0000 0.05691  0.16922  0.12500  Biso   1.000  C
  C91      1.0000 0.11231  0.16922  0.12500  Biso   1.000  C
  C92      1.0000 0.05691  0.88769  0.12500  Biso   1.000  C
  C93      1.0000 0.83078  0.94309  0.12500  Biso   1.000  C
  C94      1.0000 0.88769  0.83078  0.37500  Biso   1.000  C
  C95      1.0000 0.94309  0.11231  0.37500  Biso   1.000  C
  C96      1.0000 0.16922  0.05691  0.37500  Biso   1.000  C
  C97      1.0000 0.11410  0.11229  0.37500  Biso   1.000  C
  C98      1.0000 0.88771  0.00181  0.37500  Biso   1.000  C
  C99      1.0000 0.99819  0.88590  0.37500  Biso   1.000  C
  C100     1.0000 0.88590  0.88771  0.12500  Biso   1.000  C
  C101     1.0000 0.11229  0.99819  0.12500  Biso   1.000  C
  C102     1.0000 0.00181  0.11410  0.12500  Biso   1.000  C
  C103     1.0000 0.11229  0.11410  0.12500  Biso   1.000  C
  C104     1.0000 0.00181  0.88771  0.12500  Biso   1.000  C
  C105     1.0000 0.88590  0.99819  0.12500  Biso   1.000  C
  C106     1.0000 0.88771  0.88590  0.37500  Biso   1.000  C
  C107     1.0000 0.99819  0.11229  0.37500  Biso   1.000  C
  C108     1.0000 0.11410  0.00181  0.37500  Biso   1.000  C
  C109     1.0000 0.00003  0.05672  0.37500  Biso   1.000  C
  C110     1.0000 0.94328  0.94331  0.37500  Biso   1.000  C
  C111     1.0000 0.05669  0.99997  0.37500  Biso   1.000  C
  C112     1.0000 0.99997  0.94328  0.12500  Biso   1.000  C
  C113     1.0000 0.05672  0.05669  0.12500  Biso   1.000  C
  C114     1.0000 0.94331  0.00003  0.12500  Biso   1.000  C
  C115     1.0000 0.05672  0.00003  0.12500  Biso   1.000  C
  C116     1.0000 0.94331  0.94328  0.12500  Biso   1.000  C
  C117     1.0000 0.99997  0.05669  0.12500  Biso   1.000  C
  C118     1.0000 0.94328  0.99997  0.37500  Biso   1.000  C
  C119     1.0000 0.05669  0.05672  0.37500  Biso   1.000  C
  C120     1.0000 0.00003  0.94331  0.37500  Biso   1.000  C
  H1       1.0000 0.11858  0.15700  0.37500  Biso   1.000  H
  H2       1.0000 0.84300  0.96158  0.37500  Biso   1.000  H
  H3       1.0000 0.03842  0.88142  0.37500  Biso   1.000  H
  H4       1.0000 0.88142  0.84300  0.12500  Biso   1.000  H
  H5       1.0000 0.15700  0.03842  0.12500  Biso   1.000  H
  H6       1.0000 0.96158  0.11858  0.12500  Biso   1.000  H
  H7       1.0000 0.15700  0.11858  0.12500  Biso   1.000  H
  H8       1.0000 0.96158  0.84300  0.12500  Biso   1.000  H
  H9       1.0000 0.88142  0.03842  0.12500  Biso   1.000  H
  H10      1.0000 0.84300  0.88142  0.37500  Biso   1.000  H
  H11      1.0000 0.03842  0.15700  0.37500  Biso   1.000  H
  H12      1.0000 0.11858  0.96158  0.37500  Biso   1.000  H
  H13      1.0000 0.54800  0.37173  0.37500  Biso   1.000  H
  H14      1.0000 0.62827  0.17627  0.37500  Biso   1.000  H
  H15      1.0000 0.82373  0.45200  0.37500  Biso   1.000  H
  H16      1.0000 0.45200  0.62827  0.12500  Biso   1.000  H
  H17      1.0000 0.37173  0.82373  0.12500  Biso   1.000  H
  H18      1.0000 0.17627  0.54800  0.12500  Biso   1.000  H
  H19      1.0000 0.37173  0.54800  0.12500  Biso   1.000  H
  H20      1.0000 0.17627  0.62827  0.12500  Biso   1.000  H
  H21      1.0000 0.45200  0.82373  0.12500  Biso   1.000  H
  H22      1.0000 0.62827  0.45200  0.37500  Biso   1.000  H
  H23      1.0000 0.82373  0.37173  0.37500  Biso   1.000  H
  H24      1.0000 0.54800  0.17627  0.37500  Biso   1.000  H
  O25      1.0000 0.22343  0.16610  0.87500  Biso   1.000  O
  O26      1.0000 0.83390  0.05733  0.87500  Biso   1.000  O
  O27      1.0000 0.94267  0.77657  0.87500  Biso   1.000  O
  O28      1.0000 0.77657  0.83390  0.62500  Biso   1.000  O
  O29      1.0000 0.16610  0.94267  0.62500  Biso   1.000  O
  O30      1.0000 0.05733  0.22343  0.62500  Biso   1.000  O
  O31      1.0000 0.16610  0.22343  0.62500  Biso   1.000  O
  O32      1.0000 0.05733  0.83390  0.62500  Biso   1.000  O
  O33      1.0000 0.77657  0.94267  0.62500  Biso   1.000  O
  O34      1.0000 0.83390  0.77657  0.87500  Biso   1.000  O
  O35      1.0000 0.94267  0.16610  0.87500  Biso   1.000  O
  O36      1.0000 0.22343  0.05733  0.87500  Biso   1.000  O
  C121     1.0000 0.27775  0.16690  0.87500  Biso   1.000  C
  C122     1.0000 0.83310  0.11085  0.87500  Biso   1.000  C
  C123     1.0000 0.88915  0.72225  0.87500  Biso   1.000  C
  C124     1.0000 0.72225  0.83310  0.62500  Biso   1.000  C
  C125     1.0000 0.16690  0.88915  0.62500  Biso   1.000  C
  C126     1.0000 0.11085  0.27775  0.62500  Biso   1.000  C
  C127     1.0000 0.16690  0.27775  0.62500  Biso   1.000  C
  C128     1.0000 0.11085  0.83310  0.62500  Biso   1.000  C
  C129     1.0000 0.72225  0.88915  0.62500  Biso   1.000  C
  C130     1.0000 0.83310  0.72225  0.87500  Biso   1.000  C
  C131     1.0000 0.88915  0.16690  0.87500  Biso   1.000  C
  C132     1.0000 0.27775  0.11085  0.87500  Biso   1.000  C
  C133     1.0000 0.33318  0.22254  0.87500  Biso   1.000  C
  C134     1.0000 0.77746  0.11064  0.87500  Biso   1.000  C
  C135     1.0000 0.88936  0.66682  0.87500  Biso   1.000  C
  C136     1.0000 0.66682  0.77746  0.62500  Biso   1.000  C
  C137     1.0000 0.22254  0.88936  0.62500  Biso   1.000  C
  C138     1.0000 0.11064  0.33318  0.62500  Biso   1.000  C
  C139     1.0000 0.22254  0.33318  0.62500  Biso   1.000  C
  C140     1.0000 0.11064  0.77746  0.62500  Biso   1.000  C
  C141     1.0000 0.66682  0.88936  0.62500  Biso   1.000  C
  C142     1.0000 0.77746  0.66682  0.87500  Biso   1.000  C
  C143     1.0000 0.88936  0.22254  0.87500  Biso   1.000  C
  C144     1.0000 0.33318  0.11064  0.87500  Biso   1.000  C
  C145     1.0000 0.33317  0.26555  0.87500  Biso   1.000  C
  C146     1.0000 0.73445  0.06762  0.87500  Biso   1.000  C
  C147     1.0000 0.93238  0.66683  0.87500  Biso   1.000  C
  C148     1.0000 0.66683  0.73445  0.62500  Biso   1.000  C
  C149     1.0000 0.26555  0.93238  0.62500  Biso   1.000  C
  C150     1.0000 0.06762  0.33317  0.62500  Biso   1.000  C
  C151     1.0000 0.26555  0.33317  0.62500  Biso   1.000  C
  C152     1.0000 0.06762  0.73445  0.62500  Biso   1.000  C
  C153     1.0000 0.66683  0.93238  0.62500  Biso   1.000  C
  C154     1.0000 0.73445  0.66683  0.87500  Biso   1.000  C
  C155     1.0000 0.93238  0.26555  0.87500  Biso   1.000  C
  C156     1.0000 0.33317  0.06762  0.87500  Biso   1.000  C
  C157     1.0000 0.38863  0.22234  0.87500  Biso   1.000  C
  C158     1.0000 0.77766  0.16629  0.87500  Biso   1.000  C
  C159     1.0000 0.83371  0.61137  0.87500  Biso   1.000  C
  C160     1.0000 0.61137  0.77766  0.62500  Biso   1.000  C
  C161     1.0000 0.22234  0.83371  0.62500  Biso   1.000  C
  C162     1.0000 0.16629  0.38863  0.62500  Biso   1.000  C
  C163     1.0000 0.22234  0.38863  0.62500  Biso   1.000  C
  C164     1.0000 0.16629  0.77766  0.62500  Biso   1.000  C
  C165     1.0000 0.61137  0.83371  0.62500  Biso   1.000  C
  C166     1.0000 0.77766  0.61137  0.87500  Biso   1.000  C
  C167     1.0000 0.83371  0.22234  0.87500  Biso   1.000  C
  C168     1.0000 0.38863  0.16629  0.87500  Biso   1.000  C
  O37      1.0000 0.44298  0.27587  0.87500  Biso   1.000  O
  O38      1.0000 0.72413  0.16711  0.87500  Biso   1.000  O
  O39      1.0000 0.83289  0.55702  0.87500  Biso   1.000  O
  O40      1.0000 0.55702  0.72413  0.62500  Biso   1.000  O
  O41      1.0000 0.27587  0.83289  0.62500  Biso   1.000  O
  O42      1.0000 0.16711  0.44298  0.62500  Biso   1.000  O
  O43      1.0000 0.27587  0.44298  0.62500  Biso   1.000  O
  O44      1.0000 0.16711  0.72413  0.62500  Biso   1.000  O
  O45      1.0000 0.55702  0.83289  0.62500  Biso   1.000  O
  O46      1.0000 0.72413  0.55702  0.87500  Biso   1.000  O
  O47      1.0000 0.83289  0.27587  0.87500  Biso   1.000  O
  O48      1.0000 0.44298  0.16711  0.87500  Biso   1.000  O
  C169     1.0000 0.49724  0.27633  0.87500  Biso   1.000  C
  C170     1.0000 0.72367  0.22091  0.87500  Biso   1.000  C
  C171     1.0000 0.77909  0.50276  0.87500  Biso   1.000  C
  C172     1.0000 0.50276  0.72367  0.62500  Biso   1.000  C
  C173     1.0000 0.27633  0.77909  0.62500  Biso   1.000  C
  C174     1.0000 0.22091  0.49724  0.62500  Biso   1.000  C
  C175     1.0000 0.27633  0.49724  0.62500  Biso   1.000  C
  C176     1.0000 0.22091  0.72367  0.62500  Biso   1.000  C
  C177     1.0000 0.50276  0.77909  0.62500  Biso   1.000  C
  C178     1.0000 0.72367  0.50276  0.87500  Biso   1.000  C
  C179     1.0000 0.77909  0.27633  0.87500  Biso   1.000  C
  C180     1.0000 0.49724  0.22091  0.87500  Biso   1.000  C
  C181     1.0000 0.55244  0.33148  0.87500  Biso   1.000  C
  C182     1.0000 0.66852  0.22096  0.87500  Biso   1.000  C
  C183     1.0000 0.77904  0.44756  0.87500  Biso   1.000  C
  C184     1.0000 0.44756  0.66852  0.62500  Biso   1.000  C
  C185     1.0000 0.33148  0.77904  0.62500  Biso   1.000  C
  C186     1.0000 0.22096  0.55244  0.62500  Biso   1.000  C
  C187     1.0000 0.33148  0.55244  0.62500  Biso   1.000  C
  C188     1.0000 0.22096  0.66852  0.62500  Biso   1.000  C
  C189     1.0000 0.44756  0.77904  0.62500  Biso   1.000  C
  C190     1.0000 0.66852  0.44756  0.87500  Biso   1.000  C
  C191     1.0000 0.77904  0.33148  0.87500  Biso   1.000  C
  C192     1.0000 0.55244  0.22096  0.87500  Biso   1.000  C
  C193     1.0000 0.60992  0.33335  0.87500  Biso   1.000  C
  C194     1.0000 0.66665  0.27657  0.87500  Biso   1.000  C
  C195     1.0000 0.72343  0.39008  0.87500  Biso   1.000  C
  C196     1.0000 0.39008  0.66665  0.62500  Biso   1.000  C
  C197     1.0000 0.33335  0.72343  0.62500  Biso   1.000  C
  C198     1.0000 0.27657  0.60992  0.62500  Biso   1.000  C
  C199     1.0000 0.33335  0.60992  0.62500  Biso   1.000  C
  C200     1.0000 0.27657  0.66665  0.62500  Biso   1.000  C
  C201     1.0000 0.39008  0.72343  0.62500  Biso   1.000  C
  C202     1.0000 0.66665  0.39008  0.87500  Biso   1.000  C
  C203     1.0000 0.72343  0.33335  0.87500  Biso   1.000  C
  C204     1.0000 0.60992  0.27657  0.87500  Biso   1.000  C
  C205     1.0000 0.16922  0.11231  0.87500  Biso   1.000  C
  C206     1.0000 0.88769  0.05691  0.87500  Biso   1.000  C
  C207     1.0000 0.94309  0.83078  0.87500  Biso   1.000  C
  C208     1.0000 0.83078  0.88769  0.62500  Biso   1.000  C
  C209     1.0000 0.11231  0.94309  0.62500  Biso   1.000  C
  C210     1.0000 0.05691  0.16922  0.62500  Biso   1.000  C
  C211     1.0000 0.11231  0.16922  0.62500  Biso   1.000  C
  C212     1.0000 0.05691  0.88769  0.62500  Biso   1.000  C
  C213     1.0000 0.83078  0.94309  0.62500  Biso   1.000  C
  C214     1.0000 0.88769  0.83078  0.87500  Biso   1.000  C
  C215     1.0000 0.94309  0.11231  0.87500  Biso   1.000  C
  C216     1.0000 0.16922  0.05691  0.87500  Biso   1.000  C
  C217     1.0000 0.11410  0.11229  0.87500  Biso   1.000  C
  C218     1.0000 0.88771  0.00181  0.87500  Biso   1.000  C
  C219     1.0000 0.99819  0.88590  0.87500  Biso   1.000  C
  C220     1.0000 0.88590  0.88771  0.62500  Biso   1.000  C
  C221     1.0000 0.11229  0.99819  0.62500  Biso   1.000  C
  C222     1.0000 0.00181  0.11410  0.62500  Biso   1.000  C
  C223     1.0000 0.11229  0.11410  0.62500  Biso   1.000  C
  C224     1.0000 0.00181  0.88771  0.62500  Biso   1.000  C
  C225     1.0000 0.88590  0.99819  0.62500  Biso   1.000  C
  C226     1.0000 0.88771  0.88590  0.87500  Biso   1.000  C
  C227     1.0000 0.99819  0.11229  0.87500  Biso   1.000  C
  C228     1.0000 0.11410  0.00181  0.87500  Biso   1.000  C
  C229     1.0000 0.00003  0.05672  0.87500  Biso   1.000  C
  C230     1.0000 0.94328  0.94331  0.87500  Biso   1.000  C
  C231     1.0000 0.05669  0.99997  0.87500  Biso   1.000  C
  C232     1.0000 0.99997  0.94328  0.62500  Biso   1.000  C
  C233     1.0000 0.05672  0.05669  0.62500  Biso   1.000  C
  C234     1.0000 0.94331  0.00003  0.62500  Biso   1.000  C
  C235     1.0000 0.05672  0.00003  0.62500  Biso   1.000  C
  C236     1.0000 0.94331  0.94328  0.62500  Biso   1.000  C
  C237     1.0000 0.99997  0.05669  0.62500  Biso   1.000  C
  C238     1.0000 0.94328  0.99997  0.87500  Biso   1.000  C
  C239     1.0000 0.05669  0.05672  0.87500  Biso   1.000  C
  C240     1.0000 0.00003  0.94331  0.87500  Biso   1.000  C
  H25      1.0000 0.11858  0.15700  0.87500  Biso   1.000  H
  H26      1.0000 0.84300  0.96158  0.87500  Biso   1.000  H
  H27      1.0000 0.03842  0.88142  0.87500  Biso   1.000  H
  H28      1.0000 0.88142  0.84300  0.62500  Biso   1.000  H
  H29      1.0000 0.15700  0.03842  0.62500  Biso   1.000  H
  H30      1.0000 0.96158  0.11858  0.62500  Biso   1.000  H
  H31      1.0000 0.15700  0.11858  0.62500  Biso   1.000  H
  H32      1.0000 0.96158  0.84300  0.62500  Biso   1.000  H
  H33      1.0000 0.88142  0.03842  0.62500  Biso   1.000  H
  H34      1.0000 0.84300  0.88142  0.87500  Biso   1.000  H
  H35      1.0000 0.03842  0.15700  0.87500  Biso   1.000  H
  H36      1.0000 0.11858  0.96158  0.87500  Biso   1.000  H
  H37      1.0000 0.54800  0.37173  0.87500  Biso   1.000  H
  H38      1.0000 0.62827  0.17627  0.87500  Biso   1.000  H
  H39      1.0000 0.82373  0.45200  0.87500  Biso   1.000  H
  H40      1.0000 0.45200  0.62827  0.62500  Biso   1.000  H
  H41      1.0000 0.37173  0.82373  0.62500  Biso   1.000  H
  H42      1.0000 0.17627  0.54800  0.62500  Biso   1.000  H
  H43      1.0000 0.37173  0.54800  0.62500  Biso   1.000  H
  H44      1.0000 0.17627  0.62827  0.62500  Biso   1.000  H
  H45      1.0000 0.45200  0.82373  0.62500  Biso   1.000  H
  H46      1.0000 0.62827  0.45200  0.87500  Biso   1.000  H
  H47      1.0000 0.82373  0.37173  0.87500  Biso   1.000  H
  H48      1.0000 0.54800  0.17627  0.87500  Biso   1.000  H
