data_image0
_cell_length_a       32.005
_cell_length_b       32.005
_cell_length_c       6.88
_cell_angle_alpha    90
_cell_angle_beta     90
_cell_angle_gamma    120

_symmetry_space_group_name_H-M    "P 1"
_symmetry_int_tables_number       1

loop_
  _symmetry_equiv_pos_as_xyz
  'x, y, z'

loop_
  _atom_site_label
  _atom_site_occupancy
  _atom_site_fract_x
  _atom_site_fract_y
  _atom_site_fract_z
  _atom_site_thermal_displace_type
  _atom_site_B_iso_or_equiv
  _atom_site_type_symbol
  N1       1.0000 0.60062  0.15279  0.25000  Biso   1.000  N
  N2       1.0000 0.84721  0.44783  0.25000  Biso   1.000  N
  N3       1.0000 0.55217  0.39938  0.25000  Biso   1.000  N
  N4       1.0000 0.39938  0.84721  0.25000  Biso   1.000  N
  N5       1.0000 0.15279  0.55217  0.25000  Biso   1.000  N
  N6       1.0000 0.44783  0.60062  0.25000  Biso   1.000  N
  C1       1.0000 0.60689  0.19807  0.25000  Biso   1.000  C
  C2       1.0000 0.80193  0.40882  0.25000  Biso   1.000  C
  C3       1.0000 0.59118  0.39311  0.25000  Biso   1.000  C
  C4       1.0000 0.39311  0.80193  0.25000  Biso   1.000  C
  C5       1.0000 0.19807  0.59118  0.25000  Biso   1.000  C
  C6       1.0000 0.40882  0.60689  0.25000  Biso   1.000  C
  C7       1.0000 0.65295  0.23816  0.25000  Biso   1.000  C
  C8       1.0000 0.76184  0.41479  0.25000  Biso   1.000  C
  C9       1.0000 0.58521  0.34705  0.25000  Biso   1.000  C
  C10      1.0000 0.34705  0.76184  0.25000  Biso   1.000  C
  C11      1.0000 0.23816  0.58521  0.25000  Biso   1.000  C
  C12      1.0000 0.41479  0.65295  0.25000  Biso   1.000  C
  C13      1.0000 0.66053  0.28595  0.25000  Biso   1.000  C
  C14      1.0000 0.71405  0.37458  0.25000  Biso   1.000  C
  C15      1.0000 0.62542  0.33947  0.25000  Biso   1.000  C
  C16      1.0000 0.33947  0.71405  0.25000  Biso   1.000  C
  C17      1.0000 0.28595  0.62542  0.25000  Biso   1.000  C
  C18      1.0000 0.37458  0.66053  0.25000  Biso   1.000  C
  H1       1.0000 0.71162  0.46035  0.25000  Biso   1.000  H
  H2       1.0000 0.53965  0.25127  0.25000  Biso   1.000  H
  H3       1.0000 0.74873  0.28838  0.25000  Biso   1.000  H
  H4       1.0000 0.28838  0.53965  0.25000  Biso   1.000  H
  H5       1.0000 0.46035  0.74873  0.25000  Biso   1.000  H
  H6       1.0000 0.25127  0.71162  0.25000  Biso   1.000  H
  C19      1.0000 0.39016  0.46926  0.25000  Biso   1.000  C
  C20      1.0000 0.53074  0.92090  0.25000  Biso   1.000  C
  C21      1.0000 0.07910  0.60984  0.25000  Biso   1.000  C
  C22      1.0000 0.60984  0.53074  0.25000  Biso   1.000  C
  C23      1.0000 0.46926  0.07910  0.25000  Biso   1.000  C
  C24      1.0000 0.92090  0.39016  0.25000  Biso   1.000  C
  C25      1.0000 0.39602  0.51532  0.25000  Biso   1.000  C
  C26      1.0000 0.48468  0.88070  0.25000  Biso   1.000  C
  C27      1.0000 0.11930  0.60398  0.25000  Biso   1.000  C
  C28      1.0000 0.60398  0.48468  0.25000  Biso   1.000  C
  C29      1.0000 0.51532  0.11930  0.25000  Biso   1.000  C
  C30      1.0000 0.88070  0.39602  0.25000  Biso   1.000  C
  C31      1.0000 0.43047  0.46320  0.25000  Biso   1.000  C
  C32      1.0000 0.53680  0.96727  0.25000  Biso   1.000  C
  C33      1.0000 0.03273  0.56953  0.25000  Biso   1.000  C
  C34      1.0000 0.56953  0.53680  0.25000  Biso   1.000  C
  C35      1.0000 0.46320  0.03273  0.25000  Biso   1.000  C
  C36      1.0000 0.96727  0.43047  0.25000  Biso   1.000  C
  N7       1.0000 0.16456  0.64289  0.25000  Biso   1.000  N
  N8       1.0000 0.35711  0.52167  0.25000  Biso   1.000  N
  N9       1.0000 0.47833  0.83544  0.25000  Biso   1.000  N
  N10      1.0000 0.83544  0.35711  0.25000  Biso   1.000  N
  N11      1.0000 0.64289  0.47833  0.25000  Biso   1.000  N
  N12      1.0000 0.52167  0.16456  0.25000  Biso   1.000  N
  C37      1.0000 0.20408  0.63745  0.25000  Biso   1.000  C
  C38      1.0000 0.36255  0.56663  0.25000  Biso   1.000  C
  C39      1.0000 0.43337  0.79592  0.25000  Biso   1.000  C
  C40      1.0000 0.79592  0.36255  0.25000  Biso   1.000  C
  C41      1.0000 0.63745  0.43337  0.25000  Biso   1.000  C
  C42      1.0000 0.56663  0.20408  0.25000  Biso   1.000  C
  C43      1.0000 0.25015  0.67753  0.25000  Biso   1.000  C
  C44      1.0000 0.32247  0.57262  0.25000  Biso   1.000  C
  C45      1.0000 0.42738  0.74985  0.25000  Biso   1.000  C
  C46      1.0000 0.74985  0.32247  0.25000  Biso   1.000  C
  C47      1.0000 0.67753  0.42738  0.25000  Biso   1.000  C
  C48      1.0000 0.57262  0.25015  0.25000  Biso   1.000  C
  C49      1.0000 0.29211  0.67284  0.25000  Biso   1.000  C
  C50      1.0000 0.32716  0.61927  0.25000  Biso   1.000  C
  C51      1.0000 0.38073  0.70789  0.25000  Biso   1.000  C
  C52      1.0000 0.70789  0.32716  0.25000  Biso   1.000  C
  C53      1.0000 0.67284  0.38073  0.25000  Biso   1.000  C
  C54      1.0000 0.61927  0.29211  0.25000  Biso   1.000  C
  H7       1.0000 0.45164  0.68170  0.25000  Biso   1.000  H
  H8       1.0000 0.31830  0.76994  0.25000  Biso   1.000  H
  H9       1.0000 0.23006  0.54836  0.25000  Biso   1.000  H
  H10      1.0000 0.54836  0.31830  0.25000  Biso   1.000  H
  H11      1.0000 0.68170  0.23006  0.25000  Biso   1.000  H
  H12      1.0000 0.76994  0.45164  0.25000  Biso   1.000  H
  C55      1.0000 0.51699  0.45010  0.25000  Biso   1.000  C
  C56      1.0000 0.54990  0.06689  0.25000  Biso   1.000  C
  C57      1.0000 0.93311  0.48301  0.25000  Biso   1.000  C
  C58      1.0000 0.48301  0.54990  0.25000  Biso   1.000  C
  C59      1.0000 0.45010  0.93311  0.25000  Biso   1.000  C
  C60      1.0000 0.06689  0.51699  0.25000  Biso   1.000  C
  C61      1.0000 0.55742  0.44423  0.25000  Biso   1.000  C
  C62      1.0000 0.55577  0.11319  0.25000  Biso   1.000  C
  C63      1.0000 0.88681  0.44258  0.25000  Biso   1.000  C
  C64      1.0000 0.44258  0.55577  0.25000  Biso   1.000  C
  C65      1.0000 0.44423  0.88681  0.25000  Biso   1.000  C
  C66      1.0000 0.11319  0.55742  0.25000  Biso   1.000  C
  C67      1.0000 0.52188  0.49668  0.25000  Biso   1.000  C
  C68      1.0000 0.50332  0.02520  0.25000  Biso   1.000  C
  C69      1.0000 0.97480  0.47812  0.25000  Biso   1.000  C
  C70      1.0000 0.47812  0.50332  0.25000  Biso   1.000  C
  C71      1.0000 0.49668  0.97480  0.25000  Biso   1.000  C
  C72      1.0000 0.02520  0.52188  0.25000  Biso   1.000  C
  H13      1.0000 0.93507  0.51755  0.25000  Biso   1.000  H
  H14      1.0000 0.48245  0.41752  0.25000  Biso   1.000  H
  H15      1.0000 0.58248  0.06493  0.25000  Biso   1.000  H
  H16      1.0000 0.06493  0.48245  0.25000  Biso   1.000  H
  H17      1.0000 0.51755  0.58248  0.25000  Biso   1.000  H
  H18      1.0000 0.41752  0.93507  0.25000  Biso   1.000  H
  H19      1.0000 0.99640  0.42288  0.25000  Biso   1.000  H
  H20      1.0000 0.57712  0.57352  0.25000  Biso   1.000  H
  H21      1.0000 0.42648  0.00360  0.25000  Biso   1.000  H
  H22      1.0000 0.00360  0.57712  0.25000  Biso   1.000  H
  H23      1.0000 0.42288  0.42648  0.25000  Biso   1.000  H
  H24      1.0000 0.57352  0.99640  0.25000  Biso   1.000  H
  H25      1.0000 0.91640  0.35430  0.25000  Biso   1.000  H
  H26      1.0000 0.64570  0.56210  0.25000  Biso   1.000  H
  H27      1.0000 0.43790  0.08360  0.25000  Biso   1.000  H
  H28      1.0000 0.08360  0.64570  0.25000  Biso   1.000  H
  H29      1.0000 0.35430  0.43790  0.25000  Biso   1.000  H
  H30      1.0000 0.56210  0.91640  0.25000  Biso   1.000  H
  N13      1.0000 0.60062  0.15279  0.75000  Biso   1.000  N
  N14      1.0000 0.84721  0.44783  0.75000  Biso   1.000  N
  N15      1.0000 0.55217  0.39938  0.75000  Biso   1.000  N
  N16      1.0000 0.39938  0.84721  0.75000  Biso   1.000  N
  N17      1.0000 0.15279  0.55217  0.75000  Biso   1.000  N
  N18      1.0000 0.44783  0.60062  0.75000  Biso   1.000  N
  C73      1.0000 0.60689  0.19807  0.75000  Biso   1.000  C
  C74      1.0000 0.80193  0.40882  0.75000  Biso   1.000  C
  C75      1.0000 0.59118  0.39311  0.75000  Biso   1.000  C
  C76      1.0000 0.39311  0.80193  0.75000  Biso   1.000  C
  C77      1.0000 0.19807  0.59118  0.75000  Biso   1.000  C
  C78      1.0000 0.40882  0.60689  0.75000  Biso   1.000  C
  C79      1.0000 0.65295  0.23816  0.75000  Biso   1.000  C
  C80      1.0000 0.76184  0.41479  0.75000  Biso   1.000  C
  C81      1.0000 0.58521  0.34705  0.75000  Biso   1.000  C
  C82      1.0000 0.34705  0.76184  0.75000  Biso   1.000  C
  C83      1.0000 0.23816  0.58521  0.75000  Biso   1.000  C
  C84      1.0000 0.41479  0.65295  0.75000  Biso   1.000  C
  C85      1.0000 0.66053  0.28595  0.75000  Biso   1.000  C
  C86      1.0000 0.71405  0.37458  0.75000  Biso   1.000  C
  C87      1.0000 0.62542  0.33947  0.75000  Biso   1.000  C
  C88      1.0000 0.33947  0.71405  0.75000  Biso   1.000  C
  C89      1.0000 0.28595  0.62542  0.75000  Biso   1.000  C
  C90      1.0000 0.37458  0.66053  0.75000  Biso   1.000  C
  H31      1.0000 0.71162  0.46035  0.75000  Biso   1.000  H
  H32      1.0000 0.53965  0.25127  0.75000  Biso   1.000  H
  H33      1.0000 0.74873  0.28838  0.75000  Biso   1.000  H
  H34      1.0000 0.28838  0.53965  0.75000  Biso   1.000  H
  H35      1.0000 0.46035  0.74873  0.75000  Biso   1.000  H
  H36      1.0000 0.25127  0.71162  0.75000  Biso   1.000  H
  C91      1.0000 0.39016  0.46926  0.75000  Biso   1.000  C
  C92      1.0000 0.53074  0.92090  0.75000  Biso   1.000  C
  C93      1.0000 0.07910  0.60984  0.75000  Biso   1.000  C
  C94      1.0000 0.60984  0.53074  0.75000  Biso   1.000  C
  C95      1.0000 0.46926  0.07910  0.75000  Biso   1.000  C
  C96      1.0000 0.92090  0.39016  0.75000  Biso   1.000  C
  C97      1.0000 0.39602  0.51532  0.75000  Biso   1.000  C
  C98      1.0000 0.48468  0.88070  0.75000  Biso   1.000  C
  C99      1.0000 0.11930  0.60398  0.75000  Biso   1.000  C
  C100     1.0000 0.60398  0.48468  0.75000  Biso   1.000  C
  C101     1.0000 0.51532  0.11930  0.75000  Biso   1.000  C
  C102     1.0000 0.88070  0.39602  0.75000  Biso   1.000  C
  C103     1.0000 0.43047  0.46320  0.75000  Biso   1.000  C
  C104     1.0000 0.53680  0.96727  0.75000  Biso   1.000  C
  C105     1.0000 0.03273  0.56953  0.75000  Biso   1.000  C
  C106     1.0000 0.56953  0.53680  0.75000  Biso   1.000  C
  C107     1.0000 0.46320  0.03273  0.75000  Biso   1.000  C
  C108     1.0000 0.96727  0.43047  0.75000  Biso   1.000  C
  N19      1.0000 0.16456  0.64289  0.75000  Biso   1.000  N
  N20      1.0000 0.35711  0.52167  0.75000  Biso   1.000  N
  N21      1.0000 0.47833  0.83544  0.75000  Biso   1.000  N
  N22      1.0000 0.83544  0.35711  0.75000  Biso   1.000  N
  N23      1.0000 0.64289  0.47833  0.75000  Biso   1.000  N
  N24      1.0000 0.52167  0.16456  0.75000  Biso   1.000  N
  C109     1.0000 0.20408  0.63745  0.75000  Biso   1.000  C
  C110     1.0000 0.36255  0.56663  0.75000  Biso   1.000  C
  C111     1.0000 0.43337  0.79592  0.75000  Biso   1.000  C
  C112     1.0000 0.79592  0.36255  0.75000  Biso   1.000  C
  C113     1.0000 0.63745  0.43337  0.75000  Biso   1.000  C
  C114     1.0000 0.56663  0.20408  0.75000  Biso   1.000  C
  C115     1.0000 0.25015  0.67753  0.75000  Biso   1.000  C
  C116     1.0000 0.32247  0.57262  0.75000  Biso   1.000  C
  C117     1.0000 0.42738  0.74985  0.75000  Biso   1.000  C
  C118     1.0000 0.74985  0.32247  0.75000  Biso   1.000  C
  C119     1.0000 0.67753  0.42738  0.75000  Biso   1.000  C
  C120     1.0000 0.57262  0.25015  0.75000  Biso   1.000  C
  C121     1.0000 0.29211  0.67284  0.75000  Biso   1.000  C
  C122     1.0000 0.32716  0.61927  0.75000  Biso   1.000  C
  C123     1.0000 0.38073  0.70789  0.75000  Biso   1.000  C
  C124     1.0000 0.70789  0.32716  0.75000  Biso   1.000  C
  C125     1.0000 0.67284  0.38073  0.75000  Biso   1.000  C
  C126     1.0000 0.61927  0.29211  0.75000  Biso   1.000  C
  H37      1.0000 0.45164  0.68170  0.75000  Biso   1.000  H
  H38      1.0000 0.31830  0.76994  0.75000  Biso   1.000  H
  H39      1.0000 0.23006  0.54836  0.75000  Biso   1.000  H
  H40      1.0000 0.54836  0.31830  0.75000  Biso   1.000  H
  H41      1.0000 0.68170  0.23006  0.75000  Biso   1.000  H
  H42      1.0000 0.76994  0.45164  0.75000  Biso   1.000  H
  C127     1.0000 0.51699  0.45010  0.75000  Biso   1.000  C
  C128     1.0000 0.54990  0.06689  0.75000  Biso   1.000  C
  C129     1.0000 0.93311  0.48301  0.75000  Biso   1.000  C
  C130     1.0000 0.48301  0.54990  0.75000  Biso   1.000  C
  C131     1.0000 0.45010  0.93311  0.75000  Biso   1.000  C
  C132     1.0000 0.06689  0.51699  0.75000  Biso   1.000  C
  C133     1.0000 0.55742  0.44423  0.75000  Biso   1.000  C
  C134     1.0000 0.55577  0.11319  0.75000  Biso   1.000  C
  C135     1.0000 0.88681  0.44258  0.75000  Biso   1.000  C
  C136     1.0000 0.44258  0.55577  0.75000  Biso   1.000  C
  C137     1.0000 0.44423  0.88681  0.75000  Biso   1.000  C
  C138     1.0000 0.11319  0.55742  0.75000  Biso   1.000  C
  C139     1.0000 0.52188  0.49668  0.75000  Biso   1.000  C
  C140     1.0000 0.50332  0.02520  0.75000  Biso   1.000  C
  C141     1.0000 0.97480  0.47812  0.75000  Biso   1.000  C
  C142     1.0000 0.47812  0.50332  0.75000  Biso   1.000  C
  C143     1.0000 0.49668  0.97480  0.75000  Biso   1.000  C
  C144     1.0000 0.02520  0.52188  0.75000  Biso   1.000  C
  H43      1.0000 0.93507  0.51755  0.75000  Biso   1.000  H
  H44      1.0000 0.48245  0.41752  0.75000  Biso   1.000  H
  H45      1.0000 0.58248  0.06493  0.75000  Biso   1.000  H
  H46      1.0000 0.06493  0.48245  0.75000  Biso   1.000  H
  H47      1.0000 0.51755  0.58248  0.75000  Biso   1.000  H
  H48      1.0000 0.41752  0.93507  0.75000  Biso   1.000  H
  H49      1.0000 0.99640  0.42288  0.75000  Biso   1.000  H
  H50      1.0000 0.57712  0.57352  0.75000  Biso   1.000  H
  H51      1.0000 0.42648  0.00360  0.75000  Biso   1.000  H
  H52      1.0000 0.00360  0.57712  0.75000  Biso   1.000  H
  H53      1.0000 0.42288  0.42648  0.75000  Biso   1.000  H
  H54      1.0000 0.57352  0.99640  0.75000  Biso   1.000  H
  H55      1.0000 0.91640  0.35430  0.75000  Biso   1.000  H
  H56      1.0000 0.64570  0.56210  0.75000  Biso   1.000  H
  H57      1.0000 0.43790  0.08360  0.75000  Biso   1.000  H
  H58      1.0000 0.08360  0.64570  0.75000  Biso   1.000  H
  H59      1.0000 0.35430  0.43790  0.75000  Biso   1.000  H
  H60      1.0000 0.56210  0.91640  0.75000  Biso   1.000  H
