data_image0
_cell_length_a       32.018
_cell_length_b       32.018
_cell_length_c       6.512
_cell_angle_alpha    90
_cell_angle_beta     90
_cell_angle_gamma    120

_symmetry_space_group_name_H-M    "P 1"
_symmetry_int_tables_number       1

loop_
  _symmetry_equiv_pos_as_xyz
  'x, y, z'

loop_
  _atom_site_label
  _atom_site_occupancy
  _atom_site_fract_x
  _atom_site_fract_y
  _atom_site_fract_z
  _atom_site_thermal_displace_type
  _atom_site_B_iso_or_equiv
  _atom_site_type_symbol
  N1       1.0000 0.16860  0.14502  0.75000  Biso   1.000  N
  N2       1.0000 0.85498  0.02358  0.75000  Biso   1.000  N
  N3       1.0000 0.97642  0.83140  0.75000  Biso   1.000  N
  N4       1.0000 0.83140  0.85498  0.25000  Biso   1.000  N
  N5       1.0000 0.14502  0.97642  0.25000  Biso   1.000  N
  N6       1.0000 0.02358  0.16860  0.25000  Biso   1.000  N
  C1       1.0000 0.21387  0.15140  0.75000  Biso   1.000  C
  C2       1.0000 0.84860  0.06247  0.75000  Biso   1.000  C
  C3       1.0000 0.93753  0.78613  0.75000  Biso   1.000  C
  C4       1.0000 0.78613  0.84860  0.25000  Biso   1.000  C
  C5       1.0000 0.15140  0.93753  0.25000  Biso   1.000  C
  C6       1.0000 0.06247  0.21387  0.25000  Biso   1.000  C
  C7       1.0000 0.35839  0.17003  0.75000  Biso   1.000  C
  C8       1.0000 0.82997  0.18836  0.75000  Biso   1.000  C
  C9       1.0000 0.81164  0.64161  0.75000  Biso   1.000  C
  C10      1.0000 0.64161  0.82997  0.25000  Biso   1.000  C
  C11      1.0000 0.17003  0.81164  0.25000  Biso   1.000  C
  C12      1.0000 0.18836  0.35839  0.25000  Biso   1.000  C
  C13      1.0000 0.44643  0.22247  0.75000  Biso   1.000  C
  C14      1.0000 0.77753  0.22396  0.75000  Biso   1.000  C
  C15      1.0000 0.77604  0.55357  0.75000  Biso   1.000  C
  C16      1.0000 0.55357  0.77753  0.25000  Biso   1.000  C
  C17      1.0000 0.22247  0.77604  0.25000  Biso   1.000  C
  C18      1.0000 0.22396  0.44643  0.25000  Biso   1.000  C
  N7       1.0000 0.48605  0.26731  0.75000  Biso   1.000  N
  N8       1.0000 0.73269  0.21874  0.75000  Biso   1.000  N
  N9       1.0000 0.78126  0.51395  0.75000  Biso   1.000  N
  N10      1.0000 0.51395  0.73269  0.25000  Biso   1.000  N
  N11      1.0000 0.26731  0.78126  0.25000  Biso   1.000  N
  N12      1.0000 0.21874  0.48605  0.25000  Biso   1.000  N
  C19      1.0000 0.53134  0.27357  0.75000  Biso   1.000  C
  C20      1.0000 0.72643  0.25777  0.75000  Biso   1.000  C
  C21      1.0000 0.74223  0.46866  0.75000  Biso   1.000  C
  C22      1.0000 0.46866  0.72643  0.25000  Biso   1.000  C
  C23      1.0000 0.27357  0.74223  0.25000  Biso   1.000  C
  C24      1.0000 0.25777  0.53134  0.25000  Biso   1.000  C
  C25      1.0000 0.57147  0.31964  0.75000  Biso   1.000  C
  C26      1.0000 0.68036  0.25183  0.75000  Biso   1.000  C
  C27      1.0000 0.74817  0.42853  0.75000  Biso   1.000  C
  C28      1.0000 0.42853  0.68036  0.25000  Biso   1.000  C
  C29      1.0000 0.31964  0.74817  0.25000  Biso   1.000  C
  C30      1.0000 0.25183  0.57147  0.25000  Biso   1.000  C
  C31      1.0000 0.61927  0.32721  0.75000  Biso   1.000  C
  C32      1.0000 0.67279  0.29206  0.75000  Biso   1.000  C
  C33      1.0000 0.70794  0.38073  0.75000  Biso   1.000  C
  C34      1.0000 0.38073  0.67279  0.25000  Biso   1.000  C
  C35      1.0000 0.32721  0.70794  0.25000  Biso   1.000  C
  C36      1.0000 0.29206  0.61927  0.25000  Biso   1.000  C
  C37      1.0000 0.12913  0.10006  0.75000  Biso   1.000  C
  C38      1.0000 0.89994  0.02907  0.75000  Biso   1.000  C
  C39      1.0000 0.97093  0.87087  0.75000  Biso   1.000  C
  C40      1.0000 0.87087  0.89994  0.25000  Biso   1.000  C
  C41      1.0000 0.10006  0.97093  0.25000  Biso   1.000  C
  C42      1.0000 0.02907  0.12913  0.25000  Biso   1.000  C
  C43      1.0000 0.08308  0.09405  0.75000  Biso   1.000  C
  C44      1.0000 0.90595  0.98903  0.75000  Biso   1.000  C
  C45      1.0000 0.01097  0.91692  0.75000  Biso   1.000  C
  C46      1.0000 0.91692  0.90595  0.25000  Biso   1.000  C
  C47      1.0000 0.09405  0.01097  0.25000  Biso   1.000  C
  C48      1.0000 0.98903  0.08308  0.25000  Biso   1.000  C
  C49      1.0000 0.99383  0.04120  0.75000  Biso   1.000  C
  C50      1.0000 0.95880  0.95263  0.75000  Biso   1.000  C
  C51      1.0000 0.04737  0.00617  0.75000  Biso   1.000  C
  C52      1.0000 0.00617  0.95880  0.25000  Biso   1.000  C
  C53      1.0000 0.04120  0.04737  0.25000  Biso   1.000  C
  C54      1.0000 0.95263  0.99383  0.25000  Biso   1.000  C
  H1       1.0000 0.08194  0.12701  0.75000  Biso   1.000  H
  H2       1.0000 0.87299  0.95493  0.75000  Biso   1.000  H
  H3       1.0000 0.04507  0.91806  0.75000  Biso   1.000  H
  H4       1.0000 0.91806  0.87299  0.25000  Biso   1.000  H
  H5       1.0000 0.12701  0.04507  0.25000  Biso   1.000  H
  H6       1.0000 0.95493  0.08194  0.25000  Biso   1.000  H
  H7       1.0000 0.56340  0.34842  0.75000  Biso   1.000  H
  H8       1.0000 0.65158  0.21498  0.75000  Biso   1.000  H
  H9       1.0000 0.78502  0.43660  0.75000  Biso   1.000  H
  H10      1.0000 0.43660  0.65158  0.25000  Biso   1.000  H
  H11      1.0000 0.34842  0.78502  0.25000  Biso   1.000  H
  H12      1.0000 0.21498  0.56340  0.25000  Biso   1.000  H
  C55      1.0000 0.94342  0.74595  0.75000  Biso   1.000  C
  C56      1.0000 0.25405  0.19747  0.75000  Biso   1.000  C
  C57      1.0000 0.80253  0.05658  0.75000  Biso   1.000  C
  C58      1.0000 0.05658  0.25405  0.25000  Biso   1.000  C
  C59      1.0000 0.74595  0.80253  0.25000  Biso   1.000  C
  C60      1.0000 0.19747  0.94342  0.25000  Biso   1.000  C
  C61      1.0000 0.90310  0.69957  0.75000  Biso   1.000  C
  C62      1.0000 0.30043  0.20353  0.75000  Biso   1.000  C
  C63      1.0000 0.79647  0.09690  0.75000  Biso   1.000  C
  C64      1.0000 0.09690  0.30043  0.25000  Biso   1.000  C
  C65      1.0000 0.69957  0.79647  0.25000  Biso   1.000  C
  C66      1.0000 0.20353  0.90310  0.25000  Biso   1.000  C
  C67      1.0000 0.81649  0.59988  0.75000  Biso   1.000  C
  C68      1.0000 0.40012  0.21661  0.75000  Biso   1.000  C
  C69      1.0000 0.78339  0.18351  0.75000  Biso   1.000  C
  C70      1.0000 0.18351  0.40012  0.25000  Biso   1.000  C
  C71      1.0000 0.59988  0.78339  0.25000  Biso   1.000  C
  C72      1.0000 0.21661  0.81649  0.25000  Biso   1.000  C
  N13      1.0000 0.11432  0.18043  0.25000  Biso   1.000  N
  N14      1.0000 0.81957  0.93389  0.25000  Biso   1.000  N
  N15      1.0000 0.06611  0.88568  0.25000  Biso   1.000  N
  N16      1.0000 0.88568  0.81957  0.75000  Biso   1.000  N
  N17      1.0000 0.18043  0.06611  0.75000  Biso   1.000  N
  N18      1.0000 0.93389  0.11432  0.75000  Biso   1.000  N
  C73      1.0000 0.10904  0.21999  0.25000  Biso   1.000  C
  C74      1.0000 0.78001  0.88905  0.25000  Biso   1.000  C
  C75      1.0000 0.11095  0.89096  0.25000  Biso   1.000  C
  C76      1.0000 0.89096  0.78001  0.75000  Biso   1.000  C
  C77      1.0000 0.21999  0.11095  0.75000  Biso   1.000  C
  C78      1.0000 0.88905  0.10904  0.75000  Biso   1.000  C
  C79      1.0000 0.23603  0.36593  0.25000  Biso   1.000  C
  C80      1.0000 0.63407  0.87010  0.25000  Biso   1.000  C
  C81      1.0000 0.12990  0.76397  0.25000  Biso   1.000  C
  C82      1.0000 0.76397  0.63407  0.75000  Biso   1.000  C
  C83      1.0000 0.36593  0.12990  0.75000  Biso   1.000  C
  C84      1.0000 0.87010  0.23603  0.75000  Biso   1.000  C
  C85      1.0000 0.27051  0.45252  0.25000  Biso   1.000  C
  C86      1.0000 0.54748  0.81799  0.25000  Biso   1.000  C
  C87      1.0000 0.18201  0.72949  0.25000  Biso   1.000  C
  C88      1.0000 0.72949  0.54748  0.75000  Biso   1.000  C
  C89      1.0000 0.45252  0.18201  0.75000  Biso   1.000  C
  C90      1.0000 0.81799  0.27051  0.75000  Biso   1.000  C
  N19      1.0000 0.30944  0.49778  0.25000  Biso   1.000  N
  N20      1.0000 0.50222  0.81166  0.25000  Biso   1.000  N
  N21      1.0000 0.18834  0.69056  0.25000  Biso   1.000  N
  N22      1.0000 0.69056  0.50222  0.75000  Biso   1.000  N
  N23      1.0000 0.49778  0.18834  0.75000  Biso   1.000  N
  N24      1.0000 0.81166  0.30944  0.75000  Biso   1.000  N
  C91      1.0000 0.30403  0.53733  0.25000  Biso   1.000  C
  C92      1.0000 0.46267  0.76670  0.25000  Biso   1.000  C
  C93      1.0000 0.23330  0.69597  0.25000  Biso   1.000  C
  C94      1.0000 0.69597  0.46267  0.75000  Biso   1.000  C
  C95      1.0000 0.53733  0.23330  0.75000  Biso   1.000  C
  C96      1.0000 0.76670  0.30403  0.75000  Biso   1.000  C
  C97      1.0000 0.34413  0.58341  0.25000  Biso   1.000  C
  C98      1.0000 0.41659  0.76072  0.25000  Biso   1.000  C
  C99      1.0000 0.23928  0.65587  0.25000  Biso   1.000  C
  C100     1.0000 0.65587  0.41659  0.75000  Biso   1.000  C
  C101     1.0000 0.58341  0.23928  0.75000  Biso   1.000  C
  C102     1.0000 0.76072  0.34413  0.75000  Biso   1.000  C
  C103     1.0000 0.33949  0.62541  0.25000  Biso   1.000  C
  C104     1.0000 0.37459  0.71408  0.25000  Biso   1.000  C
  C105     1.0000 0.28592  0.66051  0.25000  Biso   1.000  C
  C106     1.0000 0.66051  0.37459  0.75000  Biso   1.000  C
  C107     1.0000 0.62541  0.28592  0.75000  Biso   1.000  C
  C108     1.0000 0.71408  0.33949  0.75000  Biso   1.000  C
  C109     1.0000 0.07534  0.13516  0.25000  Biso   1.000  C
  C110     1.0000 0.86484  0.94018  0.25000  Biso   1.000  C
  C111     1.0000 0.05982  0.92466  0.25000  Biso   1.000  C
  C112     1.0000 0.92466  0.86484  0.75000  Biso   1.000  C
  C113     1.0000 0.13516  0.05982  0.75000  Biso   1.000  C
  C114     1.0000 0.94018  0.07534  0.75000  Biso   1.000  C
  C115     1.0000 0.08136  0.09514  0.25000  Biso   1.000  C
  C116     1.0000 0.90486  0.98622  0.25000  Biso   1.000  C
  C117     1.0000 0.01378  0.91864  0.25000  Biso   1.000  C
  C118     1.0000 0.91864  0.90486  0.75000  Biso   1.000  C
  C119     1.0000 0.09514  0.01378  0.75000  Biso   1.000  C
  C120     1.0000 0.98622  0.08136  0.75000  Biso   1.000  C
  C121     1.0000 0.04740  0.00623  0.25000  Biso   1.000  C
  C122     1.0000 0.99377  0.04117  0.25000  Biso   1.000  C
  C123     1.0000 0.95883  0.95260  0.25000  Biso   1.000  C
  C124     1.0000 0.95260  0.99377  0.75000  Biso   1.000  C
  C125     1.0000 0.00623  0.95883  0.75000  Biso   1.000  C
  C126     1.0000 0.04117  0.04740  0.75000  Biso   1.000  C
  H13      1.0000 0.18400  0.26824  0.25000  Biso   1.000  H
  H14      1.0000 0.73176  0.91576  0.25000  Biso   1.000  H
  H15      1.0000 0.08424  0.81600  0.25000  Biso   1.000  H
  H16      1.0000 0.81600  0.73176  0.75000  Biso   1.000  H
  H17      1.0000 0.26824  0.08424  0.75000  Biso   1.000  H
  H18      1.0000 0.91576  0.18400  0.75000  Biso   1.000  H
  H19      1.0000 0.37823  0.58453  0.25000  Biso   1.000  H
  H20      1.0000 0.41547  0.79370  0.25000  Biso   1.000  H
  H21      1.0000 0.20630  0.62177  0.25000  Biso   1.000  H
  H22      1.0000 0.62177  0.41547  0.75000  Biso   1.000  H
  H23      1.0000 0.58453  0.20630  0.75000  Biso   1.000  H
  H24      1.0000 0.79370  0.37823  0.75000  Biso   1.000  H
  C127     1.0000 0.73371  0.88317  0.25000  Biso   1.000  C
  C128     1.0000 0.11683  0.85054  0.25000  Biso   1.000  C
  C129     1.0000 0.14946  0.26629  0.25000  Biso   1.000  C
  C130     1.0000 0.26629  0.11683  0.75000  Biso   1.000  C
  C131     1.0000 0.88317  0.14946  0.75000  Biso   1.000  C
  C132     1.0000 0.85054  0.73371  0.75000  Biso   1.000  C
  C133     1.0000 0.69201  0.83659  0.25000  Biso   1.000  C
  C134     1.0000 0.16341  0.85542  0.25000  Biso   1.000  C
  C135     1.0000 0.14458  0.30799  0.25000  Biso   1.000  C
  C136     1.0000 0.30799  0.16341  0.75000  Biso   1.000  C
  C137     1.0000 0.83659  0.14458  0.75000  Biso   1.000  C
  C138     1.0000 0.85542  0.69201  0.75000  Biso   1.000  C
  C139     1.0000 0.58770  0.86406  0.25000  Biso   1.000  C
  C140     1.0000 0.13594  0.72364  0.25000  Biso   1.000  C
  C141     1.0000 0.27636  0.41230  0.25000  Biso   1.000  C
  C142     1.0000 0.41230  0.13594  0.75000  Biso   1.000  C
  C143     1.0000 0.86406  0.27636  0.75000  Biso   1.000  C
  C144     1.0000 0.72364  0.58770  0.75000  Biso   1.000  C
  H25      1.0000 0.24361  0.33679  0.25000  Biso   1.000  H
  H26      1.0000 0.66321  0.90682  0.25000  Biso   1.000  H
  H27      1.0000 0.09318  0.75639  0.25000  Biso   1.000  H
  H28      1.0000 0.75639  0.66321  0.75000  Biso   1.000  H
  H29      1.0000 0.33679  0.09318  0.75000  Biso   1.000  H
  H30      1.0000 0.90682  0.24361  0.75000  Biso   1.000  H
  H31      1.0000 0.31221  0.41678  0.25000  Biso   1.000  H
  H32      1.0000 0.58322  0.89543  0.25000  Biso   1.000  H
  H33      1.0000 0.10457  0.68779  0.25000  Biso   1.000  H
  H34      1.0000 0.68779  0.58322  0.75000  Biso   1.000  H
  H35      1.0000 0.41678  0.10457  0.75000  Biso   1.000  H
  H36      1.0000 0.89543  0.31221  0.75000  Biso   1.000  H
  H37      1.0000 0.14896  0.39815  0.25000  Biso   1.000  H
  H38      1.0000 0.60185  0.75081  0.25000  Biso   1.000  H
  H39      1.0000 0.24919  0.85104  0.25000  Biso   1.000  H
  H40      1.0000 0.85104  0.60185  0.75000  Biso   1.000  H
  H41      1.0000 0.39815  0.24919  0.75000  Biso   1.000  H
  H42      1.0000 0.75081  0.14896  0.75000  Biso   1.000  H
  H43      1.0000 0.08932  0.32957  0.25000  Biso   1.000  H
  H44      1.0000 0.67043  0.75975  0.25000  Biso   1.000  H
  H45      1.0000 0.24025  0.91068  0.25000  Biso   1.000  H
  H46      1.0000 0.91068  0.67043  0.75000  Biso   1.000  H
  H47      1.0000 0.32957  0.24025  0.75000  Biso   1.000  H
  H48      1.0000 0.75975  0.08932  0.75000  Biso   1.000  H
  H49      1.0000 0.02071  0.24953  0.25000  Biso   1.000  H
  H50      1.0000 0.75047  0.77118  0.25000  Biso   1.000  H
  H51      1.0000 0.22882  0.97929  0.25000  Biso   1.000  H
  H52      1.0000 0.97929  0.75047  0.75000  Biso   1.000  H
  H53      1.0000 0.24953  0.22882  0.75000  Biso   1.000  H
  H54      1.0000 0.77118  0.02071  0.75000  Biso   1.000  H
  H55      1.0000 0.11823  0.10328  0.25000  Biso   1.000  H
  H56      1.0000 0.89672  0.01495  0.25000  Biso   1.000  H
  H57      1.0000 0.98505  0.88177  0.25000  Biso   1.000  H
  H58      1.0000 0.88177  0.89672  0.75000  Biso   1.000  H
  H59      1.0000 0.10328  0.98505  0.75000  Biso   1.000  H
  H60      1.0000 0.01495  0.11823  0.75000  Biso   1.000  H
