data_image0
_cell_length_a       37.8915
_cell_length_b       37.8915
_cell_length_c       7.1824
_cell_angle_alpha    90
_cell_angle_beta     90
_cell_angle_gamma    120

_symmetry_space_group_name_H-M    "P 1"
_symmetry_int_tables_number       1

loop_
  _symmetry_equiv_pos_as_xyz
  'x, y, z'

loop_
  _atom_site_label
  _atom_site_occupancy
  _atom_site_fract_x
  _atom_site_fract_y
  _atom_site_fract_z
  _atom_site_thermal_displace_type
  _atom_site_B_iso_or_equiv
  _atom_site_type_symbol
  C1       1.0000 0.30974  0.19596  0.28791  Biso   1.000  C
  C2       1.0000 0.80404  0.11378  0.28791  Biso   1.000  C
  C3       1.0000 0.88622  0.69026  0.28791  Biso   1.000  C
  C4       1.0000 0.35298  0.22014  0.29860  Biso   1.000  C
  C5       1.0000 0.77986  0.13284  0.29860  Biso   1.000  C
  C6       1.0000 0.86716  0.64702  0.29860  Biso   1.000  C
  C7       1.0000 0.35059  0.25657  0.35229  Biso   1.000  C
  C8       1.0000 0.74343  0.09402  0.35229  Biso   1.000  C
  C9       1.0000 0.90598  0.64941  0.35229  Biso   1.000  C
  C10      1.0000 0.30467  0.23112  0.33421  Biso   1.000  C
  C11      1.0000 0.76888  0.07355  0.33421  Biso   1.000  C
  C12      1.0000 0.92645  0.69533  0.33421  Biso   1.000  C
  O1       1.0000 0.27539  0.23697  0.34098  Biso   1.000  O
  O2       1.0000 0.76303  0.03842  0.34098  Biso   1.000  O
  O3       1.0000 0.96158  0.72461  0.34098  Biso   1.000  O
  O4       1.0000 0.37588  0.29190  0.39637  Biso   1.000  O
  O5       1.0000 0.70810  0.08398  0.39637  Biso   1.000  O
  O6       1.0000 0.91602  0.62412  0.39637  Biso   1.000  O
  N1       1.0000 0.28373  0.15548  0.25135  Biso   1.000  N
  N2       1.0000 0.84452  0.12825  0.25135  Biso   1.000  N
  N3       1.0000 0.87175  0.71627  0.25135  Biso   1.000  N
  N4       1.0000 0.38360  0.21160  0.26632  Biso   1.000  N
  N5       1.0000 0.78840  0.17200  0.26632  Biso   1.000  N
  N6       1.0000 0.82800  0.61640  0.26632  Biso   1.000  N
  C13      1.0000 0.24027  0.13241  0.26670  Biso   1.000  C
  C14      1.0000 0.86759  0.10786  0.26670  Biso   1.000  C
  C15      1.0000 0.89214  0.75973  0.26670  Biso   1.000  C
  H1       1.0000 0.29702  0.13755  0.25607  Biso   1.000  H
  H2       1.0000 0.86245  0.15947  0.25607  Biso   1.000  H
  H3       1.0000 0.84053  0.70298  0.25607  Biso   1.000  H
  C16      1.0000 0.21254  0.14474  0.20366  Biso   1.000  C
  C17      1.0000 0.85526  0.06780  0.20366  Biso   1.000  C
  C18      1.0000 0.93220  0.78746  0.20366  Biso   1.000  C
  C19      1.0000 0.17065  0.11688  0.20611  Biso   1.000  C
  C20      1.0000 0.88312  0.05377  0.20611  Biso   1.000  C
  C21      1.0000 0.94623  0.82935  0.20611  Biso   1.000  C
  C22      1.0000 0.15508  0.07716  0.27208  Biso   1.000  C
  C23      1.0000 0.92284  0.07792  0.27208  Biso   1.000  C
  C24      1.0000 0.92208  0.84492  0.27208  Biso   1.000  C
  C25      1.0000 0.18266  0.06503  0.33159  Biso   1.000  C
  C26      1.0000 0.93497  0.11763  0.33159  Biso   1.000  C
  C27      1.0000 0.88237  0.81734  0.33159  Biso   1.000  C
  C28      1.0000 0.22414  0.09214  0.32769  Biso   1.000  C
  C29      1.0000 0.90786  0.13200  0.32769  Biso   1.000  C
  C30      1.0000 0.86800  0.77586  0.32769  Biso   1.000  C
  C31      1.0000 0.42683  0.23667  0.27961  Biso   1.000  C
  C32      1.0000 0.76333  0.19016  0.27961  Biso   1.000  C
  C33      1.0000 0.80984  0.57317  0.27961  Biso   1.000  C
  C34      1.0000 0.45027  0.27906  0.24033  Biso   1.000  C
  C35      1.0000 0.72094  0.17121  0.24033  Biso   1.000  C
  C36      1.0000 0.82879  0.54973  0.24033  Biso   1.000  C
  C37      1.0000 0.49276  0.29800  0.24143  Biso   1.000  C
  C38      1.0000 0.70200  0.19476  0.24143  Biso   1.000  C
  C39      1.0000 0.80524  0.50724  0.24143  Biso   1.000  C
  C40      1.0000 0.51346  0.27700  0.27946  Biso   1.000  C
  C41      1.0000 0.72300  0.23646  0.27946  Biso   1.000  C
  C42      1.0000 0.76354  0.48654  0.27946  Biso   1.000  C
  C43      1.0000 0.49024  0.23518  0.31875  Biso   1.000  C
  C44      1.0000 0.76482  0.25506  0.31875  Biso   1.000  C
  C45      1.0000 0.74494  0.50976  0.31875  Biso   1.000  C
  C46      1.0000 0.44809  0.21594  0.31652  Biso   1.000  C
  C47      1.0000 0.78406  0.23215  0.31652  Biso   1.000  C
  C48      1.0000 0.76785  0.55191  0.31652  Biso   1.000  C
  H4       1.0000 0.37417  0.18111  0.25408  Biso   1.000  H
  H5       1.0000 0.81889  0.19306  0.25408  Biso   1.000  H
  H6       1.0000 0.80694  0.62583  0.25408  Biso   1.000  H
  H7       1.0000 0.15038  0.12702  0.15088  Biso   1.000  H
  H8       1.0000 0.87298  0.02336  0.15088  Biso   1.000  H
  H9       1.0000 0.97664  0.84962  0.15088  Biso   1.000  H
  H10      1.0000 0.17131  0.03411  0.38257  Biso   1.000  H
  H11      1.0000 0.96589  0.13720  0.38257  Biso   1.000  H
  H12      1.0000 0.86280  0.82869  0.38257  Biso   1.000  H
  H13      1.0000 0.24516  0.08189  0.37203  Biso   1.000  H
  H14      1.0000 0.91811  0.16327  0.37203  Biso   1.000  H
  H15      1.0000 0.83673  0.75484  0.37203  Biso   1.000  H
  H16      1.0000 0.51008  0.33041  0.20849  Biso   1.000  H
  H17      1.0000 0.66959  0.17967  0.20849  Biso   1.000  H
  H18      1.0000 0.82033  0.48992  0.20849  Biso   1.000  H
  H19      1.0000 0.50488  0.21744  0.35202  Biso   1.000  H
  H20      1.0000 0.78256  0.28744  0.35202  Biso   1.000  H
  H21      1.0000 0.71256  0.49512  0.35202  Biso   1.000  H
  H22      1.0000 0.43048  0.18318  0.34418  Biso   1.000  H
  H23      1.0000 0.81682  0.24730  0.34418  Biso   1.000  H
  H24      1.0000 0.75270  0.56952  0.34418  Biso   1.000  H
  C49      1.0000 0.04199  0.02829  0.28096  Biso   1.000  C
  C50      1.0000 0.97171  0.01370  0.28096  Biso   1.000  C
  C51      1.0000 0.98630  0.95801  0.28096  Biso   1.000  C
  C52      1.0000 0.01356  0.04155  0.28110  Biso   1.000  C
  C53      1.0000 0.95845  0.97201  0.28110  Biso   1.000  C
  C54      1.0000 0.02799  0.98644  0.28110  Biso   1.000  C
  C55      1.0000 0.08596  0.05844  0.28399  Biso   1.000  C
  C56      1.0000 0.94156  0.02752  0.28399  Biso   1.000  C
  C57      1.0000 0.97248  0.91404  0.28399  Biso   1.000  C
  N7       1.0000 0.11316  0.04741  0.27152  Biso   1.000  N
  N8       1.0000 0.95259  0.06575  0.27152  Biso   1.000  N
  N9       1.0000 0.93425  0.88684  0.27152  Biso   1.000  N
  H25      1.0000 0.02386  0.07415  0.28198  Biso   1.000  H
  H26      1.0000 0.92585  0.94971  0.28198  Biso   1.000  H
  H27      1.0000 0.05029  0.97614  0.28198  Biso   1.000  H
  H28      1.0000 0.09406  0.09098  0.30016  Biso   1.000  H
  H29      1.0000 0.90902  0.00308  0.30016  Biso   1.000  H
  H30      1.0000 0.99692  0.90594  0.30016  Biso   1.000  H
  C58      1.0000 0.64302  0.35196  0.26961  Biso   1.000  C
  C59      1.0000 0.64804  0.29106  0.26961  Biso   1.000  C
  C60      1.0000 0.70894  0.35698  0.26961  Biso   1.000  C
  C61      1.0000 0.62393  0.30941  0.26981  Biso   1.000  C
  C62      1.0000 0.69059  0.31452  0.26981  Biso   1.000  C
  C63      1.0000 0.68548  0.37607  0.26981  Biso   1.000  C
  C64      1.0000 0.57905  0.28406  0.26575  Biso   1.000  C
  C65      1.0000 0.71594  0.29499  0.26575  Biso   1.000  C
  C66      1.0000 0.70501  0.42095  0.26575  Biso   1.000  C
  N10      1.0000 0.55648  0.30057  0.28339  Biso   1.000  N
  N11      1.0000 0.69943  0.25591  0.28339  Biso   1.000  N
  N12      1.0000 0.74409  0.44352  0.28339  Biso   1.000  N
  H31      1.0000 0.62406  0.36621  0.26854  Biso   1.000  H
  H32      1.0000 0.63379  0.25785  0.26854  Biso   1.000  H
  H33      1.0000 0.74215  0.37594  0.26854  Biso   1.000  H
  H34      1.0000 0.56635  0.25062  0.24402  Biso   1.000  H
  H35      1.0000 0.74938  0.31573  0.24402  Biso   1.000  H
  H36      1.0000 0.68427  0.43365  0.24402  Biso   1.000  H
  H37      1.0000 0.22243  0.17844  0.19195  Biso   1.000  H
  H38      1.0000 0.82156  0.04399  0.19195  Biso   1.000  H
  H39      1.0000 0.95601  0.77757  0.19195  Biso   1.000  H
  H40      1.0000 0.43145  0.29493  0.24097  Biso   1.000  H
  H41      1.0000 0.70507  0.13652  0.24097  Biso   1.000  H
  H42      1.0000 0.86348  0.56855  0.24097  Biso   1.000  H
  C67      1.0000 0.30974  0.19596  0.78791  Biso   1.000  C
  C68      1.0000 0.80404  0.11378  0.78791  Biso   1.000  C
  C69      1.0000 0.88622  0.69026  0.78791  Biso   1.000  C
  C70      1.0000 0.35298  0.22014  0.79860  Biso   1.000  C
  C71      1.0000 0.77986  0.13284  0.79860  Biso   1.000  C
  C72      1.0000 0.86716  0.64702  0.79860  Biso   1.000  C
  C73      1.0000 0.35059  0.25657  0.85229  Biso   1.000  C
  C74      1.0000 0.74343  0.09402  0.85229  Biso   1.000  C
  C75      1.0000 0.90598  0.64941  0.85229  Biso   1.000  C
  C76      1.0000 0.30467  0.23112  0.83421  Biso   1.000  C
  C77      1.0000 0.76888  0.07355  0.83421  Biso   1.000  C
  C78      1.0000 0.92645  0.69533  0.83421  Biso   1.000  C
  O7       1.0000 0.27539  0.23697  0.84098  Biso   1.000  O
  O8       1.0000 0.76303  0.03842  0.84098  Biso   1.000  O
  O9       1.0000 0.96158  0.72461  0.84098  Biso   1.000  O
  O10      1.0000 0.37588  0.29190  0.89637  Biso   1.000  O
  O11      1.0000 0.70810  0.08398  0.89637  Biso   1.000  O
  O12      1.0000 0.91602  0.62412  0.89637  Biso   1.000  O
  N13      1.0000 0.28373  0.15548  0.75135  Biso   1.000  N
  N14      1.0000 0.84452  0.12825  0.75135  Biso   1.000  N
  N15      1.0000 0.87175  0.71627  0.75135  Biso   1.000  N
  N16      1.0000 0.38360  0.21160  0.76632  Biso   1.000  N
  N17      1.0000 0.78840  0.17200  0.76632  Biso   1.000  N
  N18      1.0000 0.82800  0.61640  0.76632  Biso   1.000  N
  C79      1.0000 0.24027  0.13241  0.76670  Biso   1.000  C
  C80      1.0000 0.86759  0.10786  0.76670  Biso   1.000  C
  C81      1.0000 0.89214  0.75973  0.76670  Biso   1.000  C
  H43      1.0000 0.29702  0.13755  0.75607  Biso   1.000  H
  H44      1.0000 0.86245  0.15947  0.75607  Biso   1.000  H
  H45      1.0000 0.84053  0.70298  0.75607  Biso   1.000  H
  C82      1.0000 0.21254  0.14474  0.70366  Biso   1.000  C
  C83      1.0000 0.85526  0.06780  0.70366  Biso   1.000  C
  C84      1.0000 0.93220  0.78746  0.70366  Biso   1.000  C
  C85      1.0000 0.17065  0.11688  0.70610  Biso   1.000  C
  C86      1.0000 0.88312  0.05377  0.70610  Biso   1.000  C
  C87      1.0000 0.94623  0.82935  0.70610  Biso   1.000  C
  C88      1.0000 0.15508  0.07716  0.77208  Biso   1.000  C
  C89      1.0000 0.92284  0.07792  0.77208  Biso   1.000  C
  C90      1.0000 0.92208  0.84492  0.77208  Biso   1.000  C
  C91      1.0000 0.18266  0.06503  0.83159  Biso   1.000  C
  C92      1.0000 0.93497  0.11763  0.83159  Biso   1.000  C
  C93      1.0000 0.88237  0.81734  0.83159  Biso   1.000  C
  C94      1.0000 0.22414  0.09214  0.82769  Biso   1.000  C
  C95      1.0000 0.90786  0.13200  0.82769  Biso   1.000  C
  C96      1.0000 0.86800  0.77586  0.82769  Biso   1.000  C
  C97      1.0000 0.42683  0.23667  0.77961  Biso   1.000  C
  C98      1.0000 0.76333  0.19016  0.77961  Biso   1.000  C
  C99      1.0000 0.80984  0.57317  0.77961  Biso   1.000  C
  C100     1.0000 0.45027  0.27906  0.74033  Biso   1.000  C
  C101     1.0000 0.72094  0.17121  0.74033  Biso   1.000  C
  C102     1.0000 0.82879  0.54973  0.74033  Biso   1.000  C
  C103     1.0000 0.49276  0.29800  0.74143  Biso   1.000  C
  C104     1.0000 0.70200  0.19476  0.74143  Biso   1.000  C
  C105     1.0000 0.80524  0.50724  0.74143  Biso   1.000  C
  C106     1.0000 0.51346  0.27700  0.77946  Biso   1.000  C
  C107     1.0000 0.72300  0.23646  0.77946  Biso   1.000  C
  C108     1.0000 0.76354  0.48654  0.77946  Biso   1.000  C
  C109     1.0000 0.49024  0.23518  0.81874  Biso   1.000  C
  C110     1.0000 0.76482  0.25506  0.81874  Biso   1.000  C
  C111     1.0000 0.74494  0.50976  0.81874  Biso   1.000  C
  C112     1.0000 0.44809  0.21594  0.81652  Biso   1.000  C
  C113     1.0000 0.78406  0.23215  0.81652  Biso   1.000  C
  C114     1.0000 0.76785  0.55191  0.81652  Biso   1.000  C
  H46      1.0000 0.37417  0.18111  0.75408  Biso   1.000  H
  H47      1.0000 0.81889  0.19306  0.75408  Biso   1.000  H
  H48      1.0000 0.80694  0.62583  0.75408  Biso   1.000  H
  H49      1.0000 0.15038  0.12702  0.65088  Biso   1.000  H
  H50      1.0000 0.87298  0.02336  0.65088  Biso   1.000  H
  H51      1.0000 0.97664  0.84962  0.65088  Biso   1.000  H
  H52      1.0000 0.17131  0.03411  0.88257  Biso   1.000  H
  H53      1.0000 0.96589  0.13720  0.88257  Biso   1.000  H
  H54      1.0000 0.86280  0.82869  0.88257  Biso   1.000  H
  H55      1.0000 0.24516  0.08189  0.87203  Biso   1.000  H
  H56      1.0000 0.91811  0.16327  0.87203  Biso   1.000  H
  H57      1.0000 0.83673  0.75484  0.87203  Biso   1.000  H
  H58      1.0000 0.51008  0.33041  0.70849  Biso   1.000  H
  H59      1.0000 0.66959  0.17967  0.70849  Biso   1.000  H
  H60      1.0000 0.82033  0.48992  0.70849  Biso   1.000  H
  H61      1.0000 0.50488  0.21744  0.85202  Biso   1.000  H
  H62      1.0000 0.78256  0.28744  0.85202  Biso   1.000  H
  H63      1.0000 0.71256  0.49512  0.85202  Biso   1.000  H
  H64      1.0000 0.43048  0.18318  0.84418  Biso   1.000  H
  H65      1.0000 0.81682  0.24730  0.84418  Biso   1.000  H
  H66      1.0000 0.75270  0.56952  0.84418  Biso   1.000  H
  C115     1.0000 0.04199  0.02829  0.78095  Biso   1.000  C
  C116     1.0000 0.97171  0.01370  0.78095  Biso   1.000  C
  C117     1.0000 0.98630  0.95801  0.78095  Biso   1.000  C
  C118     1.0000 0.01356  0.04155  0.78110  Biso   1.000  C
  C119     1.0000 0.95845  0.97201  0.78110  Biso   1.000  C
  C120     1.0000 0.02799  0.98644  0.78110  Biso   1.000  C
  C121     1.0000 0.08596  0.05844  0.78399  Biso   1.000  C
  C122     1.0000 0.94156  0.02752  0.78399  Biso   1.000  C
  C123     1.0000 0.97248  0.91404  0.78399  Biso   1.000  C
  N19      1.0000 0.11316  0.04741  0.77152  Biso   1.000  N
  N20      1.0000 0.95259  0.06575  0.77152  Biso   1.000  N
  N21      1.0000 0.93425  0.88684  0.77152  Biso   1.000  N
  H67      1.0000 0.02386  0.07415  0.78198  Biso   1.000  H
  H68      1.0000 0.92585  0.94971  0.78198  Biso   1.000  H
  H69      1.0000 0.05029  0.97614  0.78198  Biso   1.000  H
  H70      1.0000 0.09406  0.09098  0.80015  Biso   1.000  H
  H71      1.0000 0.90902  0.00308  0.80015  Biso   1.000  H
  H72      1.0000 0.99692  0.90594  0.80015  Biso   1.000  H
  C124     1.0000 0.64302  0.35196  0.76962  Biso   1.000  C
  C125     1.0000 0.64804  0.29106  0.76962  Biso   1.000  C
  C126     1.0000 0.70894  0.35698  0.76962  Biso   1.000  C
  C127     1.0000 0.62393  0.30941  0.76981  Biso   1.000  C
  C128     1.0000 0.69059  0.31452  0.76981  Biso   1.000  C
  C129     1.0000 0.68548  0.37607  0.76981  Biso   1.000  C
  C130     1.0000 0.57905  0.28406  0.76575  Biso   1.000  C
  C131     1.0000 0.71594  0.29499  0.76575  Biso   1.000  C
  C132     1.0000 0.70501  0.42095  0.76575  Biso   1.000  C
  N22      1.0000 0.55648  0.30057  0.78339  Biso   1.000  N
  N23      1.0000 0.69943  0.25591  0.78339  Biso   1.000  N
  N24      1.0000 0.74409  0.44352  0.78339  Biso   1.000  N
  H73      1.0000 0.62406  0.36621  0.76855  Biso   1.000  H
  H74      1.0000 0.63379  0.25785  0.76855  Biso   1.000  H
  H75      1.0000 0.74215  0.37594  0.76855  Biso   1.000  H
  H76      1.0000 0.56635  0.25062  0.74401  Biso   1.000  H
  H77      1.0000 0.74938  0.31573  0.74401  Biso   1.000  H
  H78      1.0000 0.68427  0.43365  0.74401  Biso   1.000  H
  H79      1.0000 0.22243  0.17844  0.69195  Biso   1.000  H
  H80      1.0000 0.82156  0.04399  0.69195  Biso   1.000  H
  H81      1.0000 0.95601  0.77757  0.69195  Biso   1.000  H
  H82      1.0000 0.43145  0.29493  0.74097  Biso   1.000  H
  H83      1.0000 0.70507  0.13652  0.74097  Biso   1.000  H
  H84      1.0000 0.86348  0.56855  0.74097  Biso   1.000  H
