data_image0
_cell_length_a       31
_cell_length_b       31
_cell_length_c       6.86
_cell_angle_alpha    90
_cell_angle_beta     90
_cell_angle_gamma    120

_symmetry_space_group_name_H-M    "P 1"
_symmetry_int_tables_number       1

loop_
  _symmetry_equiv_pos_as_xyz
  'x, y, z'

loop_
  _atom_site_label
  _atom_site_occupancy
  _atom_site_fract_x
  _atom_site_fract_y
  _atom_site_fract_z
  _atom_site_thermal_displace_type
  _atom_site_B_iso_or_equiv
  _atom_site_type_symbol
  C1       1.0000 0.42300  0.52690  0.25000  Biso   1.000  C
  C2       1.0000 0.47310  0.89610  0.25000  Biso   1.000  C
  C3       1.0000 0.10390  0.57700  0.25000  Biso   1.000  C
  C4       1.0000 0.57700  0.47310  0.25000  Biso   1.000  C
  C5       1.0000 0.52690  0.10390  0.25000  Biso   1.000  C
  C6       1.0000 0.89610  0.42300  0.25000  Biso   1.000  C
  N1       1.0000 0.39463  0.58490  0.25000  Biso   1.000  N
  N2       1.0000 0.41510  0.80973  0.25000  Biso   1.000  N
  N3       1.0000 0.19027  0.60537  0.25000  Biso   1.000  N
  N4       1.0000 0.60537  0.41510  0.25000  Biso   1.000  N
  N5       1.0000 0.58490  0.19027  0.25000  Biso   1.000  N
  N6       1.0000 0.80973  0.39463  0.25000  Biso   1.000  N
  C7       1.0000 0.31688  0.61572  0.25000  Biso   1.000  C
  C8       1.0000 0.38428  0.70116  0.25000  Biso   1.000  C
  C9       1.0000 0.29884  0.68312  0.25000  Biso   1.000  C
  C10      1.0000 0.68312  0.38428  0.25000  Biso   1.000  C
  C11      1.0000 0.61572  0.29884  0.25000  Biso   1.000  C
  C12      1.0000 0.70116  0.31688  0.25000  Biso   1.000  C
  C13      1.0000 0.36840  0.64994  0.25000  Biso   1.000  C
  C14      1.0000 0.35006  0.71846  0.25000  Biso   1.000  C
  C15      1.0000 0.28154  0.63160  0.25000  Biso   1.000  C
  C16      1.0000 0.63160  0.35006  0.25000  Biso   1.000  C
  C17      1.0000 0.64994  0.28154  0.25000  Biso   1.000  C
  C18      1.0000 0.71846  0.36840  0.25000  Biso   1.000  C
  C19      1.0000 0.40677  0.63394  0.25000  Biso   1.000  C
  C20      1.0000 0.36606  0.77283  0.25000  Biso   1.000  C
  C21      1.0000 0.22717  0.59323  0.25000  Biso   1.000  C
  C22      1.0000 0.59323  0.36606  0.25000  Biso   1.000  C
  C23      1.0000 0.63394  0.22717  0.25000  Biso   1.000  C
  C24      1.0000 0.77283  0.40677  0.25000  Biso   1.000  C
  C25      1.0000 0.46326  0.51434  0.25000  Biso   1.000  C
  C26      1.0000 0.48566  0.94892  0.25000  Biso   1.000  C
  C27      1.0000 0.05108  0.53674  0.25000  Biso   1.000  C
  C28      1.0000 0.53674  0.48566  0.25000  Biso   1.000  C
  C29      1.0000 0.51434  0.05108  0.25000  Biso   1.000  C
  C30      1.0000 0.94892  0.46326  0.25000  Biso   1.000  C
  C31      1.0000 0.44964  0.46386  0.25000  Biso   1.000  C
  C32      1.0000 0.53614  0.98578  0.25000  Biso   1.000  C
  C33      1.0000 0.01422  0.55036  0.25000  Biso   1.000  C
  C34      1.0000 0.55036  0.53614  0.25000  Biso   1.000  C
  C35      1.0000 0.46386  0.01422  0.25000  Biso   1.000  C
  C36      1.0000 0.98578  0.44964  0.25000  Biso   1.000  C
  C37      1.0000 0.51427  0.55088  0.25000  Biso   1.000  C
  C38      1.0000 0.44912  0.96339  0.25000  Biso   1.000  C
  C39      1.0000 0.03661  0.48573  0.25000  Biso   1.000  C
  C40      1.0000 0.48573  0.44912  0.25000  Biso   1.000  C
  C41      1.0000 0.55088  0.03661  0.25000  Biso   1.000  C
  C42      1.0000 0.96339  0.51427  0.25000  Biso   1.000  C
  O1       1.0000 0.45078  0.66591  0.25000  Biso   1.000  O
  O2       1.0000 0.33409  0.78487  0.25000  Biso   1.000  O
  O3       1.0000 0.21513  0.54922  0.25000  Biso   1.000  O
  O4       1.0000 0.54922  0.33409  0.25000  Biso   1.000  O
  O5       1.0000 0.66591  0.21513  0.25000  Biso   1.000  O
  O6       1.0000 0.78487  0.45078  0.25000  Biso   1.000  O
  O7       1.0000 0.52897  0.60152  0.25000  Biso   1.000  O
  O8       1.0000 0.39848  0.92745  0.25000  Biso   1.000  O
  O9       1.0000 0.07255  0.47103  0.25000  Biso   1.000  O
  O10      1.0000 0.47103  0.39848  0.25000  Biso   1.000  O
  O11      1.0000 0.60152  0.07255  0.25000  Biso   1.000  O
  O12      1.0000 0.92745  0.52897  0.25000  Biso   1.000  O
  N7       1.0000 0.43259  0.57268  0.25000  Biso   1.000  N
  N8       1.0000 0.42732  0.85991  0.25000  Biso   1.000  N
  N9       1.0000 0.14009  0.56741  0.25000  Biso   1.000  N
  N10      1.0000 0.56741  0.42732  0.25000  Biso   1.000  N
  N11      1.0000 0.57268  0.14009  0.25000  Biso   1.000  N
  N12      1.0000 0.85991  0.43259  0.25000  Biso   1.000  N
  H1       1.0000 0.38459  0.49690  0.25000  Biso   1.000  H
  H2       1.0000 0.50310  0.88769  0.25000  Biso   1.000  H
  H3       1.0000 0.11231  0.61541  0.25000  Biso   1.000  H
  H4       1.0000 0.61541  0.50310  0.25000  Biso   1.000  H
  H5       1.0000 0.49690  0.11231  0.25000  Biso   1.000  H
  H6       1.0000 0.88769  0.38459  0.25000  Biso   1.000  H
  H7       1.0000 0.35779  0.55603  0.25000  Biso   1.000  H
  H8       1.0000 0.44397  0.80176  0.25000  Biso   1.000  H
  H9       1.0000 0.19824  0.64221  0.25000  Biso   1.000  H
  H10      1.0000 0.64221  0.44397  0.25000  Biso   1.000  H
  H11      1.0000 0.55603  0.19824  0.25000  Biso   1.000  H
  H12      1.0000 0.80176  0.35779  0.25000  Biso   1.000  H
  H13      1.0000 0.30332  0.57630  0.25000  Biso   1.000  H
  H14      1.0000 0.42370  0.72702  0.25000  Biso   1.000  H
  H15      1.0000 0.27298  0.69668  0.25000  Biso   1.000  H
  H16      1.0000 0.69668  0.42370  0.25000  Biso   1.000  H
  H17      1.0000 0.57630  0.27298  0.25000  Biso   1.000  H
  H18      1.0000 0.72702  0.30332  0.25000  Biso   1.000  H
  H19      1.0000 0.41056  0.43560  0.25000  Biso   1.000  H
  H20      1.0000 0.56440  0.97496  0.25000  Biso   1.000  H
  H21      1.0000 0.02504  0.58944  0.25000  Biso   1.000  H
  H22      1.0000 0.58944  0.56440  0.25000  Biso   1.000  H
  H23      1.0000 0.43560  0.02504  0.25000  Biso   1.000  H
  H24      1.0000 0.97496  0.41056  0.25000  Biso   1.000  H
  H25      1.0000 0.56639  0.62454  0.25000  Biso   1.000  H
  H26      1.0000 0.37546  0.94185  0.25000  Biso   1.000  H
  H27      1.0000 0.05815  0.43361  0.25000  Biso   1.000  H
  H28      1.0000 0.43361  0.37546  0.25000  Biso   1.000  H
  H29      1.0000 0.62454  0.05815  0.25000  Biso   1.000  H
  H30      1.0000 0.94185  0.56639  0.25000  Biso   1.000  H
  C43      1.0000 0.42300  0.52690  0.75000  Biso   1.000  C
  C44      1.0000 0.47310  0.89610  0.75000  Biso   1.000  C
  C45      1.0000 0.10390  0.57700  0.75000  Biso   1.000  C
  C46      1.0000 0.57700  0.47310  0.75000  Biso   1.000  C
  C47      1.0000 0.52690  0.10390  0.75000  Biso   1.000  C
  C48      1.0000 0.89610  0.42300  0.75000  Biso   1.000  C
  N13      1.0000 0.39463  0.58490  0.75000  Biso   1.000  N
  N14      1.0000 0.41510  0.80973  0.75000  Biso   1.000  N
  N15      1.0000 0.19027  0.60537  0.75000  Biso   1.000  N
  N16      1.0000 0.60537  0.41510  0.75000  Biso   1.000  N
  N17      1.0000 0.58490  0.19027  0.75000  Biso   1.000  N
  N18      1.0000 0.80973  0.39463  0.75000  Biso   1.000  N
  C49      1.0000 0.31688  0.61572  0.75000  Biso   1.000  C
  C50      1.0000 0.38428  0.70116  0.75000  Biso   1.000  C
  C51      1.0000 0.29884  0.68312  0.75000  Biso   1.000  C
  C52      1.0000 0.68312  0.38428  0.75000  Biso   1.000  C
  C53      1.0000 0.61572  0.29884  0.75000  Biso   1.000  C
  C54      1.0000 0.70116  0.31688  0.75000  Biso   1.000  C
  C55      1.0000 0.36840  0.64994  0.75000  Biso   1.000  C
  C56      1.0000 0.35006  0.71846  0.75000  Biso   1.000  C
  C57      1.0000 0.28154  0.63160  0.75000  Biso   1.000  C
  C58      1.0000 0.63160  0.35006  0.75000  Biso   1.000  C
  C59      1.0000 0.64994  0.28154  0.75000  Biso   1.000  C
  C60      1.0000 0.71846  0.36840  0.75000  Biso   1.000  C
  C61      1.0000 0.40677  0.63394  0.75000  Biso   1.000  C
  C62      1.0000 0.36606  0.77283  0.75000  Biso   1.000  C
  C63      1.0000 0.22717  0.59323  0.75000  Biso   1.000  C
  C64      1.0000 0.59323  0.36606  0.75000  Biso   1.000  C
  C65      1.0000 0.63394  0.22717  0.75000  Biso   1.000  C
  C66      1.0000 0.77283  0.40677  0.75000  Biso   1.000  C
  C67      1.0000 0.46326  0.51434  0.75000  Biso   1.000  C
  C68      1.0000 0.48566  0.94892  0.75000  Biso   1.000  C
  C69      1.0000 0.05108  0.53674  0.75000  Biso   1.000  C
  C70      1.0000 0.53674  0.48566  0.75000  Biso   1.000  C
  C71      1.0000 0.51434  0.05108  0.75000  Biso   1.000  C
  C72      1.0000 0.94892  0.46326  0.75000  Biso   1.000  C
  C73      1.0000 0.44964  0.46386  0.75000  Biso   1.000  C
  C74      1.0000 0.53614  0.98578  0.75000  Biso   1.000  C
  C75      1.0000 0.01422  0.55036  0.75000  Biso   1.000  C
  C76      1.0000 0.55036  0.53614  0.75000  Biso   1.000  C
  C77      1.0000 0.46386  0.01422  0.75000  Biso   1.000  C
  C78      1.0000 0.98578  0.44964  0.75000  Biso   1.000  C
  C79      1.0000 0.51427  0.55088  0.75000  Biso   1.000  C
  C80      1.0000 0.44912  0.96339  0.75000  Biso   1.000  C
  C81      1.0000 0.03661  0.48573  0.75000  Biso   1.000  C
  C82      1.0000 0.48573  0.44912  0.75000  Biso   1.000  C
  C83      1.0000 0.55088  0.03661  0.75000  Biso   1.000  C
  C84      1.0000 0.96339  0.51427  0.75000  Biso   1.000  C
  O13      1.0000 0.45078  0.66591  0.75000  Biso   1.000  O
  O14      1.0000 0.33409  0.78487  0.75000  Biso   1.000  O
  O15      1.0000 0.21513  0.54922  0.75000  Biso   1.000  O
  O16      1.0000 0.54922  0.33409  0.75000  Biso   1.000  O
  O17      1.0000 0.66591  0.21513  0.75000  Biso   1.000  O
  O18      1.0000 0.78487  0.45078  0.75000  Biso   1.000  O
  O19      1.0000 0.52897  0.60152  0.75000  Biso   1.000  O
  O20      1.0000 0.39848  0.92745  0.75000  Biso   1.000  O
  O21      1.0000 0.07255  0.47103  0.75000  Biso   1.000  O
  O22      1.0000 0.47103  0.39848  0.75000  Biso   1.000  O
  O23      1.0000 0.60152  0.07255  0.75000  Biso   1.000  O
  O24      1.0000 0.92745  0.52897  0.75000  Biso   1.000  O
  N19      1.0000 0.43259  0.57268  0.75000  Biso   1.000  N
  N20      1.0000 0.42732  0.85991  0.75000  Biso   1.000  N
  N21      1.0000 0.14009  0.56741  0.75000  Biso   1.000  N
  N22      1.0000 0.56741  0.42732  0.75000  Biso   1.000  N
  N23      1.0000 0.57268  0.14009  0.75000  Biso   1.000  N
  N24      1.0000 0.85991  0.43259  0.75000  Biso   1.000  N
  H31      1.0000 0.38459  0.49690  0.75000  Biso   1.000  H
  H32      1.0000 0.50310  0.88769  0.75000  Biso   1.000  H
  H33      1.0000 0.11231  0.61541  0.75000  Biso   1.000  H
  H34      1.0000 0.61541  0.50310  0.75000  Biso   1.000  H
  H35      1.0000 0.49690  0.11231  0.75000  Biso   1.000  H
  H36      1.0000 0.88769  0.38459  0.75000  Biso   1.000  H
  H37      1.0000 0.35779  0.55603  0.75000  Biso   1.000  H
  H38      1.0000 0.44397  0.80176  0.75000  Biso   1.000  H
  H39      1.0000 0.19824  0.64221  0.75000  Biso   1.000  H
  H40      1.0000 0.64221  0.44397  0.75000  Biso   1.000  H
  H41      1.0000 0.55603  0.19824  0.75000  Biso   1.000  H
  H42      1.0000 0.80176  0.35779  0.75000  Biso   1.000  H
  H43      1.0000 0.30332  0.57630  0.75000  Biso   1.000  H
  H44      1.0000 0.42370  0.72702  0.75000  Biso   1.000  H
  H45      1.0000 0.27298  0.69668  0.75000  Biso   1.000  H
  H46      1.0000 0.69668  0.42370  0.75000  Biso   1.000  H
  H47      1.0000 0.57630  0.27298  0.75000  Biso   1.000  H
  H48      1.0000 0.72702  0.30332  0.75000  Biso   1.000  H
  H49      1.0000 0.41056  0.43560  0.75000  Biso   1.000  H
  H50      1.0000 0.56440  0.97496  0.75000  Biso   1.000  H
  H51      1.0000 0.02504  0.58944  0.75000  Biso   1.000  H
  H52      1.0000 0.58944  0.56440  0.75000  Biso   1.000  H
  H53      1.0000 0.43560  0.02504  0.75000  Biso   1.000  H
  H54      1.0000 0.97496  0.41056  0.75000  Biso   1.000  H
  H55      1.0000 0.56639  0.62454  0.75000  Biso   1.000  H
  H56      1.0000 0.37546  0.94185  0.75000  Biso   1.000  H
  H57      1.0000 0.05815  0.43361  0.75000  Biso   1.000  H
  H58      1.0000 0.43361  0.37546  0.75000  Biso   1.000  H
  H59      1.0000 0.62454  0.05815  0.75000  Biso   1.000  H
  H60      1.0000 0.94185  0.56639  0.75000  Biso   1.000  H
