data_image0
_cell_length_a       31.01
_cell_length_b       31.01
_cell_length_c       6.44
_cell_angle_alpha    90
_cell_angle_beta     90
_cell_angle_gamma    120

_symmetry_space_group_name_H-M    "P 1"
_symmetry_int_tables_number       1

loop_
  _symmetry_equiv_pos_as_xyz
  'x, y, z'

loop_
  _atom_site_label
  _atom_site_occupancy
  _atom_site_fract_x
  _atom_site_fract_y
  _atom_site_fract_z
  _atom_site_thermal_displace_type
  _atom_site_B_iso_or_equiv
  _atom_site_type_symbol
  C1       1.0000 0.08951  0.86025  0.25000  Biso   1.000  C
  C2       1.0000 0.13975  0.22926  0.25000  Biso   1.000  C
  C3       1.0000 0.77074  0.91049  0.25000  Biso   1.000  C
  C4       1.0000 0.91049  0.13975  0.75000  Biso   1.000  C
  C5       1.0000 0.86025  0.77074  0.75000  Biso   1.000  C
  C6       1.0000 0.22926  0.08951  0.75000  Biso   1.000  C
  N1       1.0000 0.06123  0.91830  0.25000  Biso   1.000  N
  N2       1.0000 0.08170  0.14293  0.25000  Biso   1.000  N
  N3       1.0000 0.85707  0.93877  0.25000  Biso   1.000  N
  N4       1.0000 0.93877  0.08170  0.75000  Biso   1.000  N
  N5       1.0000 0.91830  0.85707  0.75000  Biso   1.000  N
  N6       1.0000 0.14293  0.06123  0.75000  Biso   1.000  N
  C7       1.0000 0.98356  0.94908  0.25000  Biso   1.000  C
  C8       1.0000 0.05092  0.03448  0.25000  Biso   1.000  C
  C9       1.0000 0.96552  0.01644  0.25000  Biso   1.000  C
  C10      1.0000 0.01644  0.05092  0.75000  Biso   1.000  C
  C11      1.0000 0.94908  0.96552  0.75000  Biso   1.000  C
  C12      1.0000 0.03448  0.98356  0.75000  Biso   1.000  C
  C13      1.0000 0.03507  0.98330  0.25000  Biso   1.000  C
  C14      1.0000 0.01670  0.05177  0.25000  Biso   1.000  C
  C15      1.0000 0.94823  0.96493  0.25000  Biso   1.000  C
  C16      1.0000 0.96493  0.01670  0.75000  Biso   1.000  C
  C17      1.0000 0.98330  0.94823  0.75000  Biso   1.000  C
  C18      1.0000 0.05177  0.03507  0.75000  Biso   1.000  C
  C19      1.0000 0.07342  0.96734  0.25000  Biso   1.000  C
  C20      1.0000 0.03266  0.10608  0.25000  Biso   1.000  C
  C21      1.0000 0.89392  0.92658  0.25000  Biso   1.000  C
  C22      1.0000 0.92658  0.03266  0.75000  Biso   1.000  C
  C23      1.0000 0.96734  0.89392  0.75000  Biso   1.000  C
  C24      1.0000 0.10608  0.07342  0.75000  Biso   1.000  C
  C25      1.0000 0.12975  0.84766  0.25000  Biso   1.000  C
  C26      1.0000 0.15234  0.28209  0.25000  Biso   1.000  C
  C27      1.0000 0.71791  0.87025  0.25000  Biso   1.000  C
  C28      1.0000 0.87025  0.15234  0.75000  Biso   1.000  C
  C29      1.0000 0.84766  0.71791  0.75000  Biso   1.000  C
  C30      1.0000 0.28209  0.12975  0.75000  Biso   1.000  C
  C31      1.0000 0.11610  0.79717  0.25000  Biso   1.000  C
  C32      1.0000 0.20283  0.31893  0.25000  Biso   1.000  C
  C33      1.0000 0.68107  0.88390  0.25000  Biso   1.000  C
  C34      1.0000 0.88390  0.20283  0.75000  Biso   1.000  C
  C35      1.0000 0.79717  0.68107  0.75000  Biso   1.000  C
  C36      1.0000 0.31893  0.11610  0.75000  Biso   1.000  C
  C37      1.0000 0.18078  0.88419  0.25000  Biso   1.000  C
  C38      1.0000 0.11581  0.29659  0.25000  Biso   1.000  C
  C39      1.0000 0.70341  0.81922  0.25000  Biso   1.000  C
  C40      1.0000 0.81922  0.11581  0.75000  Biso   1.000  C
  C41      1.0000 0.88419  0.70341  0.75000  Biso   1.000  C
  C42      1.0000 0.29659  0.18078  0.75000  Biso   1.000  C
  O1       1.0000 0.11742  0.99930  0.25000  Biso   1.000  O
  O2       1.0000 0.00070  0.11812  0.25000  Biso   1.000  O
  O3       1.0000 0.88188  0.88258  0.25000  Biso   1.000  O
  O4       1.0000 0.88258  0.00070  0.75000  Biso   1.000  O
  O5       1.0000 0.99930  0.88188  0.75000  Biso   1.000  O
  O6       1.0000 0.11812  0.11742  0.75000  Biso   1.000  O
  O7       1.0000 0.19552  0.93484  0.25000  Biso   1.000  O
  O8       1.0000 0.06516  0.26068  0.25000  Biso   1.000  O
  O9       1.0000 0.73932  0.80448  0.25000  Biso   1.000  O
  O10      1.0000 0.80448  0.06516  0.75000  Biso   1.000  O
  O11      1.0000 0.93484  0.73932  0.75000  Biso   1.000  O
  O12      1.0000 0.26068  0.19552  0.75000  Biso   1.000  O
  N7       1.0000 0.09914  0.90603  0.25000  Biso   1.000  N
  N8       1.0000 0.09397  0.19311  0.25000  Biso   1.000  N
  N9       1.0000 0.80689  0.90086  0.25000  Biso   1.000  N
  N10      1.0000 0.90086  0.09397  0.75000  Biso   1.000  N
  N11      1.0000 0.90603  0.80689  0.75000  Biso   1.000  N
  N12      1.0000 0.19311  0.09914  0.75000  Biso   1.000  N
  H1       1.0000 0.05108  0.83028  0.25000  Biso   1.000  H
  H2       1.0000 0.16972  0.22080  0.25000  Biso   1.000  H
  H3       1.0000 0.77920  0.94892  0.25000  Biso   1.000  H
  H4       1.0000 0.94892  0.16972  0.75000  Biso   1.000  H
  H5       1.0000 0.83028  0.77920  0.75000  Biso   1.000  H
  H6       1.0000 0.22080  0.05108  0.75000  Biso   1.000  H
  H7       1.0000 0.02438  0.88945  0.25000  Biso   1.000  H
  H8       1.0000 0.11055  0.13493  0.25000  Biso   1.000  H
  H9       1.0000 0.86507  0.97562  0.25000  Biso   1.000  H
  H10      1.0000 0.97562  0.11055  0.75000  Biso   1.000  H
  H11      1.0000 0.88945  0.86507  0.75000  Biso   1.000  H
  H12      1.0000 0.13493  0.02438  0.75000  Biso   1.000  H
  H13      1.0000 0.96999  0.90966  0.25000  Biso   1.000  H
  H14      1.0000 0.09034  0.06033  0.25000  Biso   1.000  H
  H15      1.0000 0.93967  0.03001  0.25000  Biso   1.000  H
  H16      1.0000 0.03001  0.09034  0.75000  Biso   1.000  H
  H17      1.0000 0.90966  0.93967  0.75000  Biso   1.000  H
  H18      1.0000 0.06033  0.96999  0.75000  Biso   1.000  H
  H19      1.0000 0.07702  0.76893  0.25000  Biso   1.000  H
  H20      1.0000 0.23107  0.30809  0.25000  Biso   1.000  H
  H21      1.0000 0.69191  0.92298  0.25000  Biso   1.000  H
  H22      1.0000 0.92298  0.23107  0.75000  Biso   1.000  H
  H23      1.0000 0.76893  0.69191  0.75000  Biso   1.000  H
  H24      1.0000 0.30809  0.07702  0.75000  Biso   1.000  H
  H25      1.0000 0.23293  0.95787  0.25000  Biso   1.000  H
  H26      1.0000 0.04213  0.27506  0.25000  Biso   1.000  H
  H27      1.0000 0.72494  0.76707  0.25000  Biso   1.000  H
  H28      1.0000 0.76707  0.04213  0.75000  Biso   1.000  H
  H29      1.0000 0.95787  0.72494  0.75000  Biso   1.000  H
  H30      1.0000 0.27506  0.23293  0.75000  Biso   1.000  H
  C43      1.0000 0.24347  0.80634  0.25000  Biso   1.000  C
  C44      1.0000 0.19366  0.43713  0.25000  Biso   1.000  C
  C45      1.0000 0.56287  0.75653  0.25000  Biso   1.000  C
  C46      1.0000 0.75653  0.19366  0.75000  Biso   1.000  C
  C47      1.0000 0.80634  0.56287  0.75000  Biso   1.000  C
  C48      1.0000 0.43713  0.24347  0.75000  Biso   1.000  C
  N13      1.0000 0.27189  0.74837  0.25000  Biso   1.000  N
  N14      1.0000 0.25163  0.52352  0.25000  Biso   1.000  N
  N15      1.0000 0.47648  0.72811  0.25000  Biso   1.000  N
  N16      1.0000 0.72811  0.25163  0.75000  Biso   1.000  N
  N17      1.0000 0.74837  0.47648  0.75000  Biso   1.000  N
  N18      1.0000 0.52352  0.27189  0.75000  Biso   1.000  N
  C49      1.0000 0.34975  0.71761  0.25000  Biso   1.000  C
  C50      1.0000 0.28239  0.63214  0.25000  Biso   1.000  C
  C51      1.0000 0.36786  0.65025  0.25000  Biso   1.000  C
  C52      1.0000 0.65025  0.28239  0.75000  Biso   1.000  C
  C53      1.0000 0.71761  0.36786  0.75000  Biso   1.000  C
  C54      1.0000 0.63214  0.34975  0.75000  Biso   1.000  C
  C55      1.0000 0.29822  0.68336  0.25000  Biso   1.000  C
  C56      1.0000 0.31664  0.61486  0.25000  Biso   1.000  C
  C57      1.0000 0.38514  0.70178  0.25000  Biso   1.000  C
  C58      1.0000 0.70178  0.31664  0.75000  Biso   1.000  C
  C59      1.0000 0.68336  0.38514  0.75000  Biso   1.000  C
  C60      1.0000 0.61486  0.29822  0.75000  Biso   1.000  C
  C61      1.0000 0.25980  0.69933  0.25000  Biso   1.000  C
  C62      1.0000 0.30067  0.56047  0.25000  Biso   1.000  C
  C63      1.0000 0.43953  0.74020  0.25000  Biso   1.000  C
  C64      1.0000 0.74020  0.30067  0.75000  Biso   1.000  C
  C65      1.0000 0.69933  0.43953  0.75000  Biso   1.000  C
  C66      1.0000 0.56047  0.25980  0.75000  Biso   1.000  C
  C67      1.0000 0.20320  0.81893  0.25000  Biso   1.000  C
  C68      1.0000 0.18107  0.38427  0.25000  Biso   1.000  C
  C69      1.0000 0.61573  0.79680  0.25000  Biso   1.000  C
  C70      1.0000 0.79680  0.18107  0.75000  Biso   1.000  C
  C71      1.0000 0.81893  0.61573  0.75000  Biso   1.000  C
  C72      1.0000 0.38427  0.20320  0.75000  Biso   1.000  C
  C73      1.0000 0.21684  0.86942  0.25000  Biso   1.000  C
  C74      1.0000 0.13058  0.34742  0.25000  Biso   1.000  C
  C75      1.0000 0.65258  0.78316  0.25000  Biso   1.000  C
  C76      1.0000 0.78316  0.13058  0.75000  Biso   1.000  C
  C77      1.0000 0.86942  0.65258  0.75000  Biso   1.000  C
  C78      1.0000 0.34742  0.21684  0.75000  Biso   1.000  C
  C79      1.0000 0.15217  0.78241  0.25000  Biso   1.000  C
  C80      1.0000 0.21759  0.36976  0.25000  Biso   1.000  C
  C81      1.0000 0.63024  0.84783  0.25000  Biso   1.000  C
  C82      1.0000 0.84783  0.21759  0.75000  Biso   1.000  C
  C83      1.0000 0.78241  0.63024  0.75000  Biso   1.000  C
  C84      1.0000 0.36976  0.15217  0.75000  Biso   1.000  C
  O13      1.0000 0.21582  0.66733  0.25000  Biso   1.000  O
  O14      1.0000 0.33267  0.54849  0.25000  Biso   1.000  O
  O15      1.0000 0.45151  0.78418  0.25000  Biso   1.000  O
  O16      1.0000 0.78418  0.33267  0.75000  Biso   1.000  O
  O17      1.0000 0.66733  0.45151  0.75000  Biso   1.000  O
  O18      1.0000 0.54849  0.21582  0.75000  Biso   1.000  O
  O19      1.0000 0.13743  0.73176  0.25000  Biso   1.000  O
  O20      1.0000 0.26824  0.40567  0.25000  Biso   1.000  O
  O21      1.0000 0.59433  0.86257  0.25000  Biso   1.000  O
  O22      1.0000 0.86257  0.26824  0.75000  Biso   1.000  O
  O23      1.0000 0.73176  0.59433  0.75000  Biso   1.000  O
  O24      1.0000 0.40567  0.13743  0.75000  Biso   1.000  O
  N19      1.0000 0.23391  0.76057  0.25000  Biso   1.000  N
  N20      1.0000 0.23943  0.47334  0.25000  Biso   1.000  N
  N21      1.0000 0.52666  0.76609  0.25000  Biso   1.000  N
  N22      1.0000 0.76609  0.23943  0.75000  Biso   1.000  N
  N23      1.0000 0.76057  0.52666  0.75000  Biso   1.000  N
  N24      1.0000 0.47334  0.23391  0.75000  Biso   1.000  N
  H31      1.0000 0.28187  0.83635  0.25000  Biso   1.000  H
  H32      1.0000 0.16365  0.44552  0.25000  Biso   1.000  H
  H33      1.0000 0.55448  0.71813  0.25000  Biso   1.000  H
  H34      1.0000 0.71813  0.16365  0.75000  Biso   1.000  H
  H35      1.0000 0.83635  0.55448  0.75000  Biso   1.000  H
  H36      1.0000 0.44552  0.28187  0.75000  Biso   1.000  H
  H37      1.0000 0.30872  0.77724  0.25000  Biso   1.000  H
  H38      1.0000 0.22276  0.53148  0.25000  Biso   1.000  H
  H39      1.0000 0.46852  0.69128  0.25000  Biso   1.000  H
  H40      1.0000 0.69128  0.22276  0.75000  Biso   1.000  H
  H41      1.0000 0.77724  0.46852  0.75000  Biso   1.000  H
  H42      1.0000 0.53148  0.30872  0.75000  Biso   1.000  H
  H43      1.0000 0.36327  0.75703  0.25000  Biso   1.000  H
  H44      1.0000 0.24297  0.60624  0.25000  Biso   1.000  H
  H45      1.0000 0.39376  0.63673  0.25000  Biso   1.000  H
  H46      1.0000 0.63673  0.24297  0.75000  Biso   1.000  H
  H47      1.0000 0.75703  0.39376  0.75000  Biso   1.000  H
  H48      1.0000 0.60624  0.36327  0.75000  Biso   1.000  H
  H49      1.0000 0.25593  0.89766  0.25000  Biso   1.000  H
  H50      1.0000 0.10234  0.35827  0.25000  Biso   1.000  H
  H51      1.0000 0.64173  0.74407  0.25000  Biso   1.000  H
  H52      1.0000 0.74407  0.10234  0.75000  Biso   1.000  H
  H53      1.0000 0.89766  0.64173  0.75000  Biso   1.000  H
  H54      1.0000 0.35827  0.25593  0.75000  Biso   1.000  H
  H55      1.0000 0.10002  0.70874  0.25000  Biso   1.000  H
  H56      1.0000 0.29126  0.39128  0.25000  Biso   1.000  H
  H57      1.0000 0.60872  0.89998  0.25000  Biso   1.000  H
  H58      1.0000 0.89998  0.29126  0.75000  Biso   1.000  H
  H59      1.0000 0.70874  0.60872  0.75000  Biso   1.000  H
  H60      1.0000 0.39128  0.10002  0.75000  Biso   1.000  H
