data_image0
_cell_length_a       30.76
_cell_length_b       30.76
_cell_length_c       6.4
_cell_angle_alpha    90
_cell_angle_beta     90
_cell_angle_gamma    120

_symmetry_space_group_name_H-M    "P 1"
_symmetry_int_tables_number       1

loop_
  _symmetry_equiv_pos_as_xyz
  'x, y, z'

loop_
  _atom_site_label
  _atom_site_occupancy
  _atom_site_fract_x
  _atom_site_fract_y
  _atom_site_fract_z
  _atom_site_thermal_displace_type
  _atom_site_B_iso_or_equiv
  _atom_site_type_symbol
  C1       1.0000 0.76477  0.20460  0.29334  Biso   1.000  C
  C2       1.0000 0.79540  0.56017  0.29334  Biso   1.000  C
  C3       1.0000 0.43983  0.23523  0.29334  Biso   1.000  C
  C4       1.0000 0.23523  0.79540  0.79334  Biso   1.000  C
  C5       1.0000 0.20460  0.43983  0.79334  Biso   1.000  C
  C6       1.0000 0.56017  0.76477  0.79334  Biso   1.000  C
  N1       1.0000 0.73416  0.25974  0.21968  Biso   1.000  N
  N2       1.0000 0.74026  0.47442  0.21968  Biso   1.000  N
  N3       1.0000 0.52558  0.26584  0.21968  Biso   1.000  N
  N4       1.0000 0.26584  0.74026  0.71968  Biso   1.000  N
  N5       1.0000 0.25974  0.52558  0.71968  Biso   1.000  N
  N6       1.0000 0.47442  0.73416  0.71968  Biso   1.000  N
  C7       1.0000 0.65212  0.28237  0.13105  Biso   1.000  C
  C8       1.0000 0.71763  0.36975  0.13105  Biso   1.000  C
  C9       1.0000 0.63025  0.34788  0.13105  Biso   1.000  C
  C10      1.0000 0.34788  0.71763  0.63105  Biso   1.000  C
  C11      1.0000 0.28237  0.63025  0.63105  Biso   1.000  C
  C12      1.0000 0.36975  0.65212  0.63105  Biso   1.000  C
  C13      1.0000 0.70344  0.31866  0.13260  Biso   1.000  C
  C14      1.0000 0.68134  0.38478  0.13260  Biso   1.000  C
  C15      1.0000 0.61522  0.29656  0.13260  Biso   1.000  C
  C16      1.0000 0.29656  0.68134  0.63260  Biso   1.000  C
  C17      1.0000 0.31866  0.61522  0.63260  Biso   1.000  C
  C18      1.0000 0.38478  0.70344  0.63260  Biso   1.000  C
  C19      1.0000 0.74264  0.30388  0.13177  Biso   1.000  C
  C20      1.0000 0.69612  0.43876  0.13177  Biso   1.000  C
  C21      1.0000 0.56124  0.25736  0.13177  Biso   1.000  C
  C22      1.0000 0.25736  0.69612  0.63177  Biso   1.000  C
  C23      1.0000 0.30388  0.56124  0.63177  Biso   1.000  C
  C24      1.0000 0.43876  0.74264  0.63177  Biso   1.000  C
  C25      1.0000 0.80456  0.19075  0.28818  Biso   1.000  C
  C26      1.0000 0.80925  0.61381  0.28818  Biso   1.000  C
  C27      1.0000 0.38619  0.19544  0.28818  Biso   1.000  C
  C28      1.0000 0.19544  0.80925  0.78818  Biso   1.000  C
  C29      1.0000 0.19075  0.38619  0.78818  Biso   1.000  C
  C30      1.0000 0.61381  0.80456  0.78818  Biso   1.000  C
  C31      1.0000 0.79064  0.14088  0.33524  Biso   1.000  C
  C32      1.0000 0.85912  0.64976  0.33524  Biso   1.000  C
  C33      1.0000 0.35024  0.20936  0.33524  Biso   1.000  C
  C34      1.0000 0.20936  0.85912  0.83524  Biso   1.000  C
  C35      1.0000 0.14088  0.35024  0.83524  Biso   1.000  C
  C36      1.0000 0.64976  0.79064  0.83524  Biso   1.000  C
  C37      1.0000 0.85515  0.22571  0.24016  Biso   1.000  C
  C38      1.0000 0.77429  0.62944  0.24016  Biso   1.000  C
  C39      1.0000 0.37056  0.14485  0.24016  Biso   1.000  C
  C40      1.0000 0.14485  0.77429  0.74016  Biso   1.000  C
  C41      1.0000 0.22571  0.37056  0.74016  Biso   1.000  C
  C42      1.0000 0.62944  0.85515  0.74016  Biso   1.000  C
  C43      1.0000 0.76235  0.03870  0.43147  Biso   1.000  C
  C44      1.0000 0.96130  0.72365  0.43147  Biso   1.000  C
  C45      1.0000 0.27635  0.23765  0.43147  Biso   1.000  C
  C46      1.0000 0.23765  0.96130  0.93147  Biso   1.000  C
  C47      1.0000 0.03870  0.27635  0.93147  Biso   1.000  C
  C48      1.0000 0.72365  0.76235  0.93147  Biso   1.000  C
  O1       1.0000 0.78346  0.33207  0.05365  Biso   1.000  O
  O2       1.0000 0.66793  0.45139  0.05365  Biso   1.000  O
  O3       1.0000 0.54861  0.21654  0.05365  Biso   1.000  O
  O4       1.0000 0.21654  0.66793  0.55365  Biso   1.000  O
  O5       1.0000 0.33207  0.54861  0.55365  Biso   1.000  O
  O6       1.0000 0.45139  0.78346  0.55365  Biso   1.000  O
  O7       1.0000 0.86840  0.27595  0.19730  Biso   1.000  O
  O8       1.0000 0.72405  0.59245  0.19730  Biso   1.000  O
  O9       1.0000 0.40755  0.13160  0.19730  Biso   1.000  O
  O10      1.0000 0.13160  0.72405  0.69730  Biso   1.000  O
  O11      1.0000 0.27595  0.40755  0.69730  Biso   1.000  O
  O12      1.0000 0.59245  0.86840  0.69730  Biso   1.000  O
  N7       1.0000 0.77181  0.24659  0.21601  Biso   1.000  N
  N8       1.0000 0.75341  0.52522  0.21601  Biso   1.000  N
  N9       1.0000 0.47478  0.22819  0.21601  Biso   1.000  N
  N10      1.0000 0.22819  0.75341  0.71601  Biso   1.000  N
  N11      1.0000 0.24659  0.47478  0.71601  Biso   1.000  N
  N12      1.0000 0.52522  0.77181  0.71601  Biso   1.000  N
  H1       1.0000 0.72847  0.17824  0.35920  Biso   1.000  H
  H2       1.0000 0.82176  0.55023  0.35920  Biso   1.000  H
  H3       1.0000 0.44977  0.27153  0.35920  Biso   1.000  H
  H4       1.0000 0.27153  0.82176  0.85920  Biso   1.000  H
  H5       1.0000 0.17824  0.44977  0.85920  Biso   1.000  H
  H6       1.0000 0.55023  0.72847  0.85920  Biso   1.000  H
  H7       1.0000 0.70033  0.23636  0.29622  Biso   1.000  H
  H8       1.0000 0.76364  0.46397  0.29622  Biso   1.000  H
  H9       1.0000 0.53603  0.29967  0.29622  Biso   1.000  H
  H10      1.0000 0.29967  0.76364  0.79622  Biso   1.000  H
  H11      1.0000 0.23636  0.53603  0.79622  Biso   1.000  H
  H12      1.0000 0.46397  0.70033  0.79622  Biso   1.000  H
  H13      1.0000 0.64055  0.24288  0.12606  Biso   1.000  H
  H14      1.0000 0.75712  0.39767  0.12606  Biso   1.000  H
  H15      1.0000 0.60233  0.35945  0.12606  Biso   1.000  H
  H16      1.0000 0.35945  0.75712  0.62606  Biso   1.000  H
  H17      1.0000 0.24288  0.60233  0.62606  Biso   1.000  H
  H18      1.0000 0.39767  0.64055  0.62606  Biso   1.000  H
  H19      1.0000 0.75175  0.11512  0.37296  Biso   1.000  H
  H20      1.0000 0.88488  0.63663  0.37296  Biso   1.000  H
  H21      1.0000 0.36337  0.24825  0.37296  Biso   1.000  H
  H22      1.0000 0.24825  0.88488  0.87296  Biso   1.000  H
  H23      1.0000 0.11512  0.36337  0.87296  Biso   1.000  H
  H24      1.0000 0.63663  0.75175  0.87296  Biso   1.000  H
  H25      1.0000 0.75970  0.00200  0.46328  Biso   1.000  H
  H26      1.0000 0.99800  0.75770  0.46328  Biso   1.000  H
  H27      1.0000 0.24230  0.24030  0.46328  Biso   1.000  H
  H28      1.0000 0.24030  0.99800  0.96328  Biso   1.000  H
  H29      1.0000 0.00200  0.24230  0.96328  Biso   1.000  H
  H30      1.0000 0.75770  0.75970  0.96328  Biso   1.000  H
  H31      1.0000 0.73736  0.03373  0.29735  Biso   1.000  H
  H32      1.0000 0.96627  0.70363  0.29735  Biso   1.000  H
  H33      1.0000 0.29637  0.26264  0.29735  Biso   1.000  H
  H34      1.0000 0.26264  0.96627  0.79735  Biso   1.000  H
  H35      1.0000 0.03373  0.29637  0.79735  Biso   1.000  H
  H36      1.0000 0.70363  0.73736  0.79735  Biso   1.000  H
  H37      1.0000 0.75011  0.05019  0.57411  Biso   1.000  H
  H38      1.0000 0.94981  0.69992  0.57411  Biso   1.000  H
  H39      1.0000 0.30008  0.24989  0.57411  Biso   1.000  H
  H40      1.0000 0.24989  0.94981  0.07411  Biso   1.000  H
  H41      1.0000 0.05019  0.30008  0.07411  Biso   1.000  H
  H42      1.0000 0.69992  0.75011  0.07411  Biso   1.000  H
  C49      1.0000 0.91591  0.14513  0.27616  Biso   1.000  C
  C50      1.0000 0.85487  0.77078  0.27616  Biso   1.000  C
  C51      1.0000 0.22922  0.08409  0.27616  Biso   1.000  C
  C52      1.0000 0.08409  0.85487  0.77616  Biso   1.000  C
  C53      1.0000 0.14513  0.22922  0.77616  Biso   1.000  C
  C54      1.0000 0.77078  0.91591  0.77616  Biso   1.000  C
  N13      1.0000 0.94187  0.08494  0.24760  Biso   1.000  N
  N14      1.0000 0.91506  0.85693  0.24760  Biso   1.000  N
  N15      1.0000 0.14307  0.05813  0.24760  Biso   1.000  N
  N16      1.0000 0.05813  0.91506  0.74760  Biso   1.000  N
  N17      1.0000 0.08494  0.14307  0.74760  Biso   1.000  N
  N18      1.0000 0.85693  0.94187  0.74760  Biso   1.000  N
  C55      1.0000 0.01785  0.05160  0.21070  Biso   1.000  C
  C56      1.0000 0.94840  0.96625  0.21070  Biso   1.000  C
  C57      1.0000 0.03375  0.98215  0.21070  Biso   1.000  C
  C58      1.0000 0.98215  0.94840  0.71070  Biso   1.000  C
  C59      1.0000 0.05160  0.03375  0.71070  Biso   1.000  C
  C60      1.0000 0.96625  0.01785  0.71070  Biso   1.000  C
  C61      1.0000 0.96573  0.01811  0.21212  Biso   1.000  C
  C62      1.0000 0.98189  0.94762  0.21212  Biso   1.000  C
  C63      1.0000 0.05238  0.03427  0.21212  Biso   1.000  C
  C64      1.0000 0.03427  0.98189  0.71212  Biso   1.000  C
  C65      1.0000 0.01811  0.05238  0.71212  Biso   1.000  C
  C66      1.0000 0.94762  0.96573  0.71212  Biso   1.000  C
  C67      1.0000 0.92832  0.03571  0.21549  Biso   1.000  C
  C68      1.0000 0.96429  0.89261  0.21549  Biso   1.000  C
  C69      1.0000 0.10739  0.07168  0.21549  Biso   1.000  C
  C70      1.0000 0.07168  0.96429  0.71549  Biso   1.000  C
  C71      1.0000 0.03571  0.10739  0.71549  Biso   1.000  C
  C72      1.0000 0.89261  0.92832  0.71549  Biso   1.000  C
  C73      1.0000 0.87638  0.15920  0.28287  Biso   1.000  C
  C74      1.0000 0.84080  0.71718  0.28287  Biso   1.000  C
  C75      1.0000 0.28282  0.12362  0.28287  Biso   1.000  C
  C76      1.0000 0.12362  0.84080  0.78287  Biso   1.000  C
  C77      1.0000 0.15920  0.28282  0.78287  Biso   1.000  C
  C78      1.0000 0.71718  0.87638  0.78287  Biso   1.000  C
  C79      1.0000 0.89051  0.20922  0.23955  Biso   1.000  C
  C80      1.0000 0.79078  0.68129  0.23955  Biso   1.000  C
  C81      1.0000 0.31871  0.10949  0.23955  Biso   1.000  C
  C82      1.0000 0.10949  0.79078  0.73955  Biso   1.000  C
  C83      1.0000 0.20922  0.31871  0.73955  Biso   1.000  C
  C84      1.0000 0.68129  0.89051  0.73955  Biso   1.000  C
  C85      1.0000 0.82595  0.12432  0.33285  Biso   1.000  C
  C86      1.0000 0.87568  0.70163  0.33285  Biso   1.000  C
  C87      1.0000 0.29837  0.17405  0.33285  Biso   1.000  C
  C88      1.0000 0.17405  0.87568  0.83285  Biso   1.000  C
  C89      1.0000 0.12432  0.29837  0.83285  Biso   1.000  C
  C90      1.0000 0.70163  0.82595  0.83285  Biso   1.000  C
  C91      1.0000 0.91913  0.31125  0.14337  Biso   1.000  C
  C92      1.0000 0.68875  0.60788  0.14337  Biso   1.000  C
  C93      1.0000 0.39212  0.08087  0.14337  Biso   1.000  C
  C94      1.0000 0.08087  0.68875  0.64337  Biso   1.000  C
  C95      1.0000 0.31125  0.39212  0.64337  Biso   1.000  C
  C96      1.0000 0.60788  0.91913  0.64337  Biso   1.000  C
  O13      1.0000 0.88392  0.00497  0.19174  Biso   1.000  O
  O14      1.0000 0.99503  0.87895  0.19174  Biso   1.000  O
  O15      1.0000 0.12105  0.11608  0.19174  Biso   1.000  O
  O16      1.0000 0.11608  0.99503  0.69174  Biso   1.000  O
  O17      1.0000 0.00497  0.12105  0.69174  Biso   1.000  O
  O18      1.0000 0.87895  0.88392  0.69174  Biso   1.000  O
  O19      1.0000 0.81323  0.07452  0.38221  Biso   1.000  O
  O20      1.0000 0.92548  0.73871  0.38221  Biso   1.000  O
  O21      1.0000 0.26129  0.18677  0.38221  Biso   1.000  O
  O22      1.0000 0.18677  0.92548  0.88221  Biso   1.000  O
  O23      1.0000 0.07452  0.26129  0.88221  Biso   1.000  O
  O24      1.0000 0.73871  0.81323  0.88221  Biso   1.000  O
  N19      1.0000 0.90479  0.09879  0.25536  Biso   1.000  N
  N20      1.0000 0.90121  0.80600  0.25536  Biso   1.000  N
  N21      1.0000 0.19400  0.09521  0.25536  Biso   1.000  N
  N22      1.0000 0.09521  0.90121  0.75536  Biso   1.000  N
  N23      1.0000 0.09879  0.19400  0.75536  Biso   1.000  N
  N24      1.0000 0.80600  0.90479  0.75536  Biso   1.000  N
  H43      1.0000 0.95498  0.17453  0.28142  Biso   1.000  H
  H44      1.0000 0.82547  0.78045  0.28142  Biso   1.000  H
  H45      1.0000 0.21955  0.04502  0.28142  Biso   1.000  H
  H46      1.0000 0.04502  0.82547  0.78142  Biso   1.000  H
  H47      1.0000 0.17453  0.21955  0.78142  Biso   1.000  H
  H48      1.0000 0.78045  0.95498  0.78142  Biso   1.000  H
  H49      1.0000 0.97909  0.11252  0.27240  Biso   1.000  H
  H50      1.0000 0.88748  0.86657  0.27240  Biso   1.000  H
  H51      1.0000 0.13343  0.02091  0.27240  Biso   1.000  H
  H52      1.0000 0.02091  0.88748  0.77240  Biso   1.000  H
  H53      1.0000 0.11252  0.13343  0.77240  Biso   1.000  H
  H54      1.0000 0.86657  0.97909  0.77240  Biso   1.000  H
  H55      1.0000 0.03245  0.09153  0.20642  Biso   1.000  H
  H56      1.0000 0.90847  0.94092  0.20642  Biso   1.000  H
  H57      1.0000 0.05908  0.96755  0.20642  Biso   1.000  H
  H58      1.0000 0.96755  0.90847  0.70642  Biso   1.000  H
  H59      1.0000 0.09153  0.05908  0.70642  Biso   1.000  H
  H60      1.0000 0.94092  0.03245  0.70642  Biso   1.000  H
  H61      1.0000 0.92951  0.23498  0.20384  Biso   1.000  H
  H62      1.0000 0.76502  0.69453  0.20384  Biso   1.000  H
  H63      1.0000 0.30547  0.07049  0.20384  Biso   1.000  H
  H64      1.0000 0.07049  0.76502  0.70384  Biso   1.000  H
  H65      1.0000 0.23498  0.30547  0.70384  Biso   1.000  H
  H66      1.0000 0.69453  0.92951  0.70384  Biso   1.000  H
  H67      1.0000 0.92214  0.34815  0.11283  Biso   1.000  H
  H68      1.0000 0.65185  0.57399  0.11283  Biso   1.000  H
  H69      1.0000 0.42601  0.07786  0.11283  Biso   1.000  H
  H70      1.0000 0.07786  0.65185  0.61283  Biso   1.000  H
  H71      1.0000 0.34815  0.42601  0.61283  Biso   1.000  H
  H72      1.0000 0.57399  0.92214  0.61283  Biso   1.000  H
  H73      1.0000 0.93030  0.29933  0.99882  Biso   1.000  H
  H74      1.0000 0.70067  0.63097  0.99882  Biso   1.000  H
  H75      1.0000 0.36903  0.06970  0.99882  Biso   1.000  H
  H76      1.0000 0.06970  0.70067  0.49882  Biso   1.000  H
  H77      1.0000 0.29933  0.36903  0.49882  Biso   1.000  H
  H78      1.0000 0.63097  0.93030  0.49882  Biso   1.000  H
  H79      1.0000 0.94477  0.31601  0.27461  Biso   1.000  H
  H80      1.0000 0.68399  0.62876  0.27461  Biso   1.000  H
  H81      1.0000 0.37124  0.05523  0.27461  Biso   1.000  H
  H82      1.0000 0.05523  0.68399  0.77461  Biso   1.000  H
  H83      1.0000 0.31601  0.37124  0.77461  Biso   1.000  H
  H84      1.0000 0.62876  0.94477  0.77461  Biso   1.000  H
