data_image0
_cell_length_a       30.52
_cell_length_b       30.52
_cell_length_c       7.46
_cell_angle_alpha    90
_cell_angle_beta     90
_cell_angle_gamma    120

_symmetry_space_group_name_H-M    "P 1"
_symmetry_int_tables_number       1

loop_
  _symmetry_equiv_pos_as_xyz
  'x, y, z'

loop_
  _atom_site_label
  _atom_site_occupancy
  _atom_site_fract_x
  _atom_site_fract_y
  _atom_site_fract_z
  _atom_site_thermal_displace_type
  _atom_site_B_iso_or_equiv
  _atom_site_type_symbol
  C1       1.0000 0.42411  0.53009  0.26826  Biso   1.000  C
  C2       1.0000 0.46991  0.89402  0.26826  Biso   1.000  C
  C3       1.0000 0.10598  0.57589  0.26826  Biso   1.000  C
  C4       1.0000 0.57589  0.46991  0.26826  Biso   1.000  C
  C5       1.0000 0.53009  0.10598  0.26826  Biso   1.000  C
  C6       1.0000 0.89402  0.42411  0.26826  Biso   1.000  C
  N1       1.0000 0.39637  0.58797  0.20214  Biso   1.000  N
  N2       1.0000 0.41203  0.80840  0.20214  Biso   1.000  N
  N3       1.0000 0.19160  0.60363  0.20214  Biso   1.000  N
  N4       1.0000 0.60363  0.41203  0.20214  Biso   1.000  N
  N5       1.0000 0.58797  0.19160  0.20214  Biso   1.000  N
  N6       1.0000 0.80840  0.39637  0.20214  Biso   1.000  N
  C7       1.0000 0.31687  0.61491  0.12291  Biso   1.000  C
  C8       1.0000 0.38509  0.70196  0.12291  Biso   1.000  C
  C9       1.0000 0.29804  0.68313  0.12291  Biso   1.000  C
  C10      1.0000 0.68313  0.38509  0.12291  Biso   1.000  C
  C11      1.0000 0.61491  0.29804  0.12291  Biso   1.000  C
  C12      1.0000 0.70196  0.31687  0.12291  Biso   1.000  C
  C13      1.0000 0.36899  0.65005  0.12474  Biso   1.000  C
  C14      1.0000 0.34995  0.71894  0.12474  Biso   1.000  C
  C15      1.0000 0.28106  0.63101  0.12474  Biso   1.000  C
  C16      1.0000 0.63101  0.34995  0.12474  Biso   1.000  C
  C17      1.0000 0.65005  0.28106  0.12474  Biso   1.000  C
  C18      1.0000 0.71894  0.36899  0.12474  Biso   1.000  C
  C19      1.0000 0.40713  0.63335  0.12835  Biso   1.000  C
  C20      1.0000 0.36665  0.77378  0.12835  Biso   1.000  C
  C21      1.0000 0.22622  0.59287  0.12835  Biso   1.000  C
  C22      1.0000 0.59287  0.36665  0.12835  Biso   1.000  C
  C23      1.0000 0.63335  0.22622  0.12835  Biso   1.000  C
  C24      1.0000 0.77378  0.40713  0.12835  Biso   1.000  C
  C25      1.0000 0.46378  0.51577  0.27332  Biso   1.000  C
  C26      1.0000 0.48423  0.94801  0.27332  Biso   1.000  C
  C27      1.0000 0.05199  0.53622  0.27332  Biso   1.000  C
  C28      1.0000 0.53622  0.48423  0.27332  Biso   1.000  C
  C29      1.0000 0.51577  0.05199  0.27332  Biso   1.000  C
  C30      1.0000 0.94801  0.46378  0.27332  Biso   1.000  C
  C31      1.0000 0.44855  0.46418  0.27661  Biso   1.000  C
  C32      1.0000 0.53582  0.98437  0.27661  Biso   1.000  C
  C33      1.0000 0.01563  0.55145  0.27661  Biso   1.000  C
  C34      1.0000 0.55145  0.53582  0.27661  Biso   1.000  C
  C35      1.0000 0.46418  0.01563  0.27661  Biso   1.000  C
  C36      1.0000 0.98437  0.44855  0.27661  Biso   1.000  C
  C37      1.0000 0.51571  0.55224  0.28114  Biso   1.000  C
  C38      1.0000 0.44776  0.96347  0.28114  Biso   1.000  C
  C39      1.0000 0.03653  0.48429  0.28114  Biso   1.000  C
  C40      1.0000 0.48429  0.44776  0.28114  Biso   1.000  C
  C41      1.0000 0.55224  0.03653  0.28114  Biso   1.000  C
  C42      1.0000 0.96347  0.51571  0.28114  Biso   1.000  C
  C43      1.0000 0.57856  0.63784  0.36923  Biso   1.000  C
  C44      1.0000 0.36216  0.94072  0.36923  Biso   1.000  C
  C45      1.0000 0.05928  0.42144  0.36923  Biso   1.000  C
  C46      1.0000 0.42144  0.36216  0.36923  Biso   1.000  C
  C47      1.0000 0.63784  0.05928  0.36923  Biso   1.000  C
  C48      1.0000 0.94072  0.57856  0.36923  Biso   1.000  C
  O1       1.0000 0.44926  0.66116  0.06726  Biso   1.000  O
  O2       1.0000 0.33884  0.78810  0.06726  Biso   1.000  O
  O3       1.0000 0.21190  0.55074  0.06726  Biso   1.000  O
  O4       1.0000 0.55074  0.33884  0.06726  Biso   1.000  O
  O5       1.0000 0.66116  0.21190  0.06726  Biso   1.000  O
  O6       1.0000 0.78810  0.44926  0.06726  Biso   1.000  O
  O7       1.0000 0.52992  0.60380  0.29590  Biso   1.000  O
  O8       1.0000 0.39620  0.92612  0.29590  Biso   1.000  O
  O9       1.0000 0.07388  0.47008  0.29590  Biso   1.000  O
  O10      1.0000 0.47008  0.39620  0.29590  Biso   1.000  O
  O11      1.0000 0.60380  0.07388  0.29590  Biso   1.000  O
  O12      1.0000 0.92612  0.52992  0.29590  Biso   1.000  O
  N7       1.0000 0.43365  0.57386  0.20842  Biso   1.000  N
  N8       1.0000 0.42614  0.85979  0.20842  Biso   1.000  N
  N9       1.0000 0.14021  0.56635  0.20842  Biso   1.000  N
  N10      1.0000 0.56635  0.42614  0.20842  Biso   1.000  N
  N11      1.0000 0.57386  0.14021  0.20842  Biso   1.000  N
  N12      1.0000 0.85979  0.43365  0.20842  Biso   1.000  N
  H1       1.0000 0.38593  0.50259  0.30887  Biso   1.000  H
  H2       1.0000 0.49741  0.88334  0.30887  Biso   1.000  H
  H3       1.0000 0.11666  0.61407  0.30887  Biso   1.000  H
  H4       1.0000 0.61407  0.49741  0.30887  Biso   1.000  H
  H5       1.0000 0.50259  0.11666  0.30887  Biso   1.000  H
  H6       1.0000 0.88334  0.38593  0.30887  Biso   1.000  H
  H7       1.0000 0.36127  0.56458  0.26193  Biso   1.000  H
  H8       1.0000 0.43542  0.79669  0.26193  Biso   1.000  H
  H9       1.0000 0.20331  0.63873  0.26193  Biso   1.000  H
  H10      1.0000 0.63873  0.43542  0.26193  Biso   1.000  H
  H11      1.0000 0.56458  0.20331  0.26193  Biso   1.000  H
  H12      1.0000 0.79669  0.36127  0.26193  Biso   1.000  H
  H13      1.0000 0.30378  0.57480  0.11895  Biso   1.000  H
  H14      1.0000 0.42520  0.72898  0.11895  Biso   1.000  H
  H15      1.0000 0.27102  0.69622  0.11895  Biso   1.000  H
  H16      1.0000 0.69622  0.42520  0.11895  Biso   1.000  H
  H17      1.0000 0.57480  0.27102  0.11895  Biso   1.000  H
  H18      1.0000 0.72898  0.30378  0.11895  Biso   1.000  H
  H19      1.0000 0.40850  0.43691  0.27441  Biso   1.000  H
  H20      1.0000 0.56309  0.97159  0.27441  Biso   1.000  H
  H21      1.0000 0.02841  0.59150  0.27441  Biso   1.000  H
  H22      1.0000 0.59150  0.56309  0.27441  Biso   1.000  H
  H23      1.0000 0.43691  0.02841  0.27441  Biso   1.000  H
  H24      1.0000 0.97159  0.40850  0.27441  Biso   1.000  H
  H25      1.0000 0.57998  0.67380  0.40497  Biso   1.000  H
  H26      1.0000 0.32620  0.90618  0.40497  Biso   1.000  H
  H27      1.0000 0.09382  0.42002  0.40497  Biso   1.000  H
  H28      1.0000 0.42002  0.32620  0.40497  Biso   1.000  H
  H29      1.0000 0.67380  0.09382  0.40497  Biso   1.000  H
  H30      1.0000 0.90618  0.57998  0.40497  Biso   1.000  H
  H31      1.0000 0.60910  0.64652  0.27134  Biso   1.000  H
  H32      1.0000 0.35348  0.96258  0.27134  Biso   1.000  H
  H33      1.0000 0.03742  0.39090  0.27134  Biso   1.000  H
  H34      1.0000 0.39090  0.35348  0.27134  Biso   1.000  H
  H35      1.0000 0.64652  0.03742  0.27134  Biso   1.000  H
  H36      1.0000 0.96258  0.60910  0.27134  Biso   1.000  H
  H37      1.0000 0.58532  0.62158  0.49124  Biso   1.000  H
  H38      1.0000 0.37842  0.96374  0.49124  Biso   1.000  H
  H39      1.0000 0.03626  0.41468  0.49124  Biso   1.000  H
  H40      1.0000 0.41468  0.37842  0.49124  Biso   1.000  H
  H41      1.0000 0.62158  0.03626  0.49124  Biso   1.000  H
  H42      1.0000 0.96374  0.58532  0.49124  Biso   1.000  H
  C49      1.0000 0.42411  0.53009  0.76826  Biso   1.000  C
  C50      1.0000 0.46991  0.89402  0.76826  Biso   1.000  C
  C51      1.0000 0.10598  0.57589  0.76826  Biso   1.000  C
  C52      1.0000 0.57589  0.46991  0.76826  Biso   1.000  C
  C53      1.0000 0.53009  0.10598  0.76826  Biso   1.000  C
  C54      1.0000 0.89402  0.42411  0.76826  Biso   1.000  C
  N13      1.0000 0.39637  0.58797  0.70214  Biso   1.000  N
  N14      1.0000 0.41203  0.80840  0.70214  Biso   1.000  N
  N15      1.0000 0.19160  0.60363  0.70214  Biso   1.000  N
  N16      1.0000 0.60363  0.41203  0.70214  Biso   1.000  N
  N17      1.0000 0.58797  0.19160  0.70214  Biso   1.000  N
  N18      1.0000 0.80840  0.39637  0.70214  Biso   1.000  N
  C55      1.0000 0.31687  0.61491  0.62292  Biso   1.000  C
  C56      1.0000 0.38509  0.70196  0.62292  Biso   1.000  C
  C57      1.0000 0.29804  0.68313  0.62292  Biso   1.000  C
  C58      1.0000 0.68313  0.38509  0.62292  Biso   1.000  C
  C59      1.0000 0.61491  0.29804  0.62292  Biso   1.000  C
  C60      1.0000 0.70196  0.31687  0.62292  Biso   1.000  C
  C61      1.0000 0.36899  0.65005  0.62474  Biso   1.000  C
  C62      1.0000 0.34995  0.71894  0.62474  Biso   1.000  C
  C63      1.0000 0.28106  0.63101  0.62474  Biso   1.000  C
  C64      1.0000 0.63101  0.34995  0.62474  Biso   1.000  C
  C65      1.0000 0.65005  0.28106  0.62474  Biso   1.000  C
  C66      1.0000 0.71894  0.36899  0.62474  Biso   1.000  C
  C67      1.0000 0.40713  0.63335  0.62836  Biso   1.000  C
  C68      1.0000 0.36665  0.77378  0.62836  Biso   1.000  C
  C69      1.0000 0.22622  0.59287  0.62836  Biso   1.000  C
  C70      1.0000 0.59287  0.36665  0.62836  Biso   1.000  C
  C71      1.0000 0.63335  0.22622  0.62836  Biso   1.000  C
  C72      1.0000 0.77378  0.40713  0.62836  Biso   1.000  C
  C73      1.0000 0.46378  0.51577  0.77332  Biso   1.000  C
  C74      1.0000 0.48423  0.94801  0.77332  Biso   1.000  C
  C75      1.0000 0.05199  0.53622  0.77332  Biso   1.000  C
  C76      1.0000 0.53622  0.48423  0.77332  Biso   1.000  C
  C77      1.0000 0.51577  0.05199  0.77332  Biso   1.000  C
  C78      1.0000 0.94801  0.46378  0.77332  Biso   1.000  C
  C79      1.0000 0.44855  0.46418  0.77662  Biso   1.000  C
  C80      1.0000 0.53582  0.98437  0.77662  Biso   1.000  C
  C81      1.0000 0.01563  0.55145  0.77662  Biso   1.000  C
  C82      1.0000 0.55145  0.53582  0.77662  Biso   1.000  C
  C83      1.0000 0.46418  0.01563  0.77662  Biso   1.000  C
  C84      1.0000 0.98437  0.44855  0.77662  Biso   1.000  C
  C85      1.0000 0.51571  0.55224  0.78114  Biso   1.000  C
  C86      1.0000 0.44776  0.96347  0.78114  Biso   1.000  C
  C87      1.0000 0.03653  0.48429  0.78114  Biso   1.000  C
  C88      1.0000 0.48429  0.44776  0.78114  Biso   1.000  C
  C89      1.0000 0.55224  0.03653  0.78114  Biso   1.000  C
  C90      1.0000 0.96347  0.51571  0.78114  Biso   1.000  C
  C91      1.0000 0.57856  0.63784  0.86923  Biso   1.000  C
  C92      1.0000 0.36216  0.94072  0.86923  Biso   1.000  C
  C93      1.0000 0.05928  0.42144  0.86923  Biso   1.000  C
  C94      1.0000 0.42144  0.36216  0.86923  Biso   1.000  C
  C95      1.0000 0.63784  0.05928  0.86923  Biso   1.000  C
  C96      1.0000 0.94072  0.57856  0.86923  Biso   1.000  C
  O13      1.0000 0.44926  0.66116  0.56726  Biso   1.000  O
  O14      1.0000 0.33884  0.78810  0.56726  Biso   1.000  O
  O15      1.0000 0.21190  0.55074  0.56726  Biso   1.000  O
  O16      1.0000 0.55074  0.33884  0.56726  Biso   1.000  O
  O17      1.0000 0.66116  0.21190  0.56726  Biso   1.000  O
  O18      1.0000 0.78810  0.44926  0.56726  Biso   1.000  O
  O19      1.0000 0.52992  0.60380  0.79590  Biso   1.000  O
  O20      1.0000 0.39620  0.92612  0.79590  Biso   1.000  O
  O21      1.0000 0.07388  0.47008  0.79590  Biso   1.000  O
  O22      1.0000 0.47008  0.39620  0.79590  Biso   1.000  O
  O23      1.0000 0.60380  0.07388  0.79590  Biso   1.000  O
  O24      1.0000 0.92612  0.52992  0.79590  Biso   1.000  O
  N19      1.0000 0.43365  0.57386  0.70842  Biso   1.000  N
  N20      1.0000 0.42614  0.85979  0.70842  Biso   1.000  N
  N21      1.0000 0.14021  0.56635  0.70842  Biso   1.000  N
  N22      1.0000 0.56635  0.42614  0.70842  Biso   1.000  N
  N23      1.0000 0.57386  0.14021  0.70842  Biso   1.000  N
  N24      1.0000 0.85979  0.43365  0.70842  Biso   1.000  N
  H43      1.0000 0.38593  0.50259  0.80887  Biso   1.000  H
  H44      1.0000 0.49741  0.88334  0.80887  Biso   1.000  H
  H45      1.0000 0.11666  0.61407  0.80887  Biso   1.000  H
  H46      1.0000 0.61407  0.49741  0.80887  Biso   1.000  H
  H47      1.0000 0.50259  0.11666  0.80887  Biso   1.000  H
  H48      1.0000 0.88334  0.38593  0.80887  Biso   1.000  H
  H49      1.0000 0.36127  0.56458  0.76193  Biso   1.000  H
  H50      1.0000 0.43542  0.79669  0.76193  Biso   1.000  H
  H51      1.0000 0.20331  0.63873  0.76193  Biso   1.000  H
  H52      1.0000 0.63873  0.43542  0.76193  Biso   1.000  H
  H53      1.0000 0.56458  0.20331  0.76193  Biso   1.000  H
  H54      1.0000 0.79669  0.36127  0.76193  Biso   1.000  H
  H55      1.0000 0.30378  0.57480  0.61895  Biso   1.000  H
  H56      1.0000 0.42520  0.72898  0.61895  Biso   1.000  H
  H57      1.0000 0.27102  0.69622  0.61895  Biso   1.000  H
  H58      1.0000 0.69622  0.42520  0.61895  Biso   1.000  H
  H59      1.0000 0.57480  0.27102  0.61895  Biso   1.000  H
  H60      1.0000 0.72898  0.30378  0.61895  Biso   1.000  H
  H61      1.0000 0.40850  0.43691  0.77441  Biso   1.000  H
  H62      1.0000 0.56309  0.97159  0.77441  Biso   1.000  H
  H63      1.0000 0.02841  0.59150  0.77441  Biso   1.000  H
  H64      1.0000 0.59150  0.56309  0.77441  Biso   1.000  H
  H65      1.0000 0.43691  0.02841  0.77441  Biso   1.000  H
  H66      1.0000 0.97159  0.40850  0.77441  Biso   1.000  H
  H67      1.0000 0.57998  0.67380  0.90497  Biso   1.000  H
  H68      1.0000 0.32620  0.90618  0.90497  Biso   1.000  H
  H69      1.0000 0.09382  0.42002  0.90497  Biso   1.000  H
  H70      1.0000 0.42002  0.32620  0.90497  Biso   1.000  H
  H71      1.0000 0.67380  0.09382  0.90497  Biso   1.000  H
  H72      1.0000 0.90618  0.57998  0.90497  Biso   1.000  H
  H73      1.0000 0.60910  0.64652  0.77134  Biso   1.000  H
  H74      1.0000 0.35348  0.96258  0.77134  Biso   1.000  H
  H75      1.0000 0.03742  0.39090  0.77134  Biso   1.000  H
  H76      1.0000 0.39090  0.35348  0.77134  Biso   1.000  H
  H77      1.0000 0.64652  0.03742  0.77134  Biso   1.000  H
  H78      1.0000 0.96258  0.60910  0.77134  Biso   1.000  H
  H79      1.0000 0.58532  0.62158  0.99124  Biso   1.000  H
  H80      1.0000 0.37842  0.96374  0.99124  Biso   1.000  H
  H81      1.0000 0.03626  0.41468  0.99124  Biso   1.000  H
  H82      1.0000 0.41468  0.37842  0.99124  Biso   1.000  H
  H83      1.0000 0.62158  0.03626  0.99124  Biso   1.000  H
  H84      1.0000 0.96374  0.58532  0.99124  Biso   1.000  H
