data_image0
_cell_length_a       36.4757
_cell_length_b       36.4757
_cell_length_c       8.3996
_cell_angle_alpha    90
_cell_angle_beta     90
_cell_angle_gamma    90

_symmetry_space_group_name_H-M    "P 1"
_symmetry_int_tables_number       1

loop_
  _symmetry_equiv_pos_as_xyz
  'x, y, z'

loop_
  _atom_site_label
  _atom_site_occupancy
  _atom_site_fract_x
  _atom_site_fract_y
  _atom_site_fract_z
  _atom_site_thermal_displace_type
  _atom_site_B_iso_or_equiv
  _atom_site_type_symbol
  C1       1.0000 0.47214  0.88465  0.25461  Biso   1.000  C
  C2       1.0000 0.52786  0.11535  0.25461  Biso   1.000  C
  C3       1.0000 0.11535  0.47214  0.25461  Biso   1.000  C
  C4       1.0000 0.88465  0.52786  0.25461  Biso   1.000  C
  C5       1.0000 0.50913  0.88092  0.24541  Biso   1.000  C
  C6       1.0000 0.49087  0.11908  0.24541  Biso   1.000  C
  C7       1.0000 0.11908  0.50913  0.24541  Biso   1.000  C
  C8       1.0000 0.88092  0.49087  0.24541  Biso   1.000  C
  C9       1.0000 0.52479  0.91728  0.24882  Biso   1.000  C
  C10      1.0000 0.47521  0.08272  0.24882  Biso   1.000  C
  C11      1.0000 0.08272  0.52479  0.24882  Biso   1.000  C
  C12      1.0000 0.91728  0.47521  0.24882  Biso   1.000  C
  C13      1.0000 0.46375  0.92341  0.25083  Biso   1.000  C
  C14      1.0000 0.53625  0.07659  0.25083  Biso   1.000  C
  C15      1.0000 0.07659  0.46375  0.25083  Biso   1.000  C
  C16      1.0000 0.92341  0.53625  0.25083  Biso   1.000  C
  N1       1.0000 0.49649  0.94266  0.25000  Biso   1.000  N
  N2       1.0000 0.50351  0.05734  0.25000  Biso   1.000  N
  N3       1.0000 0.05734  0.49649  0.25000  Biso   1.000  N
  N4       1.0000 0.94266  0.50351  0.25000  Biso   1.000  N
  C17      1.0000 0.42809  0.93904  0.24974  Biso   1.000  C
  C18      1.0000 0.57191  0.06096  0.24974  Biso   1.000  C
  C19      1.0000 0.06096  0.42809  0.24974  Biso   1.000  C
  C20      1.0000 0.93904  0.57191  0.24974  Biso   1.000  C
  C21      1.0000 0.42091  0.97727  0.24896  Biso   1.000  C
  C22      1.0000 0.57909  0.02273  0.24896  Biso   1.000  C
  C23      1.0000 0.02273  0.42091  0.24896  Biso   1.000  C
  C24      1.0000 0.97727  0.57909  0.24896  Biso   1.000  C
  N5       1.0000 0.44494  0.00585  0.24996  Biso   1.000  N
  N6       1.0000 0.55506  0.99415  0.24996  Biso   1.000  N
  N7       1.0000 0.99415  0.44494  0.24996  Biso   1.000  N
  N8       1.0000 0.00585  0.55506  0.24996  Biso   1.000  N
  C25      1.0000 0.42706  0.03860  0.25066  Biso   1.000  C
  C26      1.0000 0.57294  0.96140  0.25066  Biso   1.000  C
  C27      1.0000 0.96140  0.42706  0.25066  Biso   1.000  C
  C28      1.0000 0.03860  0.57294  0.25066  Biso   1.000  C
  C29      1.0000 0.38466  0.99306  0.24557  Biso   1.000  C
  C30      1.0000 0.61534  0.00694  0.24557  Biso   1.000  C
  C31      1.0000 0.00694  0.38466  0.24557  Biso   1.000  C
  C32      1.0000 0.99306  0.61534  0.24557  Biso   1.000  C
  C33      1.0000 0.38837  0.03004  0.25435  Biso   1.000  C
  C34      1.0000 0.61163  0.96996  0.25435  Biso   1.000  C
  C35      1.0000 0.96996  0.38837  0.25435  Biso   1.000  C
  C36      1.0000 0.03004  0.61163  0.25435  Biso   1.000  C
  C37      1.0000 0.44187  0.07466  0.24947  Biso   1.000  C
  C38      1.0000 0.55813  0.92534  0.24947  Biso   1.000  C
  C39      1.0000 0.92534  0.44187  0.24947  Biso   1.000  C
  C40      1.0000 0.07466  0.55813  0.24947  Biso   1.000  C
  H1       1.0000 0.45464  0.86053  0.26780  Biso   1.000  H
  H2       1.0000 0.54536  0.13947  0.26780  Biso   1.000  H
  H3       1.0000 0.13947  0.45464  0.26780  Biso   1.000  H
  H4       1.0000 0.86053  0.54536  0.26780  Biso   1.000  H
  H5       1.0000 0.52175  0.85390  0.23211  Biso   1.000  H
  H6       1.0000 0.47825  0.14610  0.23211  Biso   1.000  H
  H7       1.0000 0.14610  0.52175  0.23211  Biso   1.000  H
  H8       1.0000 0.85390  0.47825  0.23211  Biso   1.000  H
  H9       1.0000 0.47317  0.00307  0.24986  Biso   1.000  H
  H10      1.0000 0.52683  0.99693  0.24986  Biso   1.000  H
  H11      1.0000 0.99693  0.47317  0.24986  Biso   1.000  H
  H12      1.0000 0.00307  0.52683  0.24986  Biso   1.000  H
  H13      1.0000 0.35771  0.98035  0.23170  Biso   1.000  H
  H14      1.0000 0.64229  0.01965  0.23170  Biso   1.000  H
  H15      1.0000 0.01965  0.35771  0.23170  Biso   1.000  H
  H16      1.0000 0.98035  0.64229  0.23170  Biso   1.000  H
  H17      1.0000 0.36434  0.04761  0.26804  Biso   1.000  H
  H18      1.0000 0.63566  0.95239  0.26804  Biso   1.000  H
  H19      1.0000 0.95239  0.36434  0.26804  Biso   1.000  H
  H20      1.0000 0.04761  0.63566  0.26804  Biso   1.000  H
  C41      1.0000 0.60820  0.08604  0.25239  Biso   1.000  C
  C42      1.0000 0.39180  0.91396  0.25239  Biso   1.000  C
  C43      1.0000 0.91396  0.60820  0.25239  Biso   1.000  C
  C44      1.0000 0.08604  0.39180  0.25239  Biso   1.000  C
  C45      1.0000 0.60532  0.12174  0.18780  Biso   1.000  C
  C46      1.0000 0.39468  0.87826  0.18780  Biso   1.000  C
  C47      1.0000 0.87826  0.60532  0.18780  Biso   1.000  C
  C48      1.0000 0.12174  0.39468  0.18780  Biso   1.000  C
  C49      1.0000 0.63351  0.14633  0.20361  Biso   1.000  C
  C50      1.0000 0.36649  0.85367  0.20361  Biso   1.000  C
  C51      1.0000 0.85367  0.63351  0.20361  Biso   1.000  C
  C52      1.0000 0.14633  0.36649  0.20361  Biso   1.000  C
  C53      1.0000 0.67183  0.10129  0.33091  Biso   1.000  C
  C54      1.0000 0.32817  0.89871  0.33091  Biso   1.000  C
  C55      1.0000 0.89871  0.67183  0.33091  Biso   1.000  C
  C56      1.0000 0.10129  0.32817  0.33091  Biso   1.000  C
  C57      1.0000 0.64242  0.07720  0.32450  Biso   1.000  C
  C58      1.0000 0.35758  0.92280  0.32450  Biso   1.000  C
  C59      1.0000 0.92280  0.64242  0.32450  Biso   1.000  C
  C60      1.0000 0.07720  0.35758  0.32450  Biso   1.000  C
  H21      1.0000 0.58171  0.13071  0.11673  Biso   1.000  H
  H22      1.0000 0.41829  0.86929  0.11673  Biso   1.000  H
  H23      1.0000 0.86929  0.58171  0.11673  Biso   1.000  H
  H24      1.0000 0.13071  0.41829  0.11673  Biso   1.000  H
  H25      1.0000 0.62818  0.17371  0.15776  Biso   1.000  H
  H26      1.0000 0.37182  0.82629  0.15776  Biso   1.000  H
  H27      1.0000 0.82629  0.62818  0.15776  Biso   1.000  H
  H28      1.0000 0.17371  0.37182  0.15776  Biso   1.000  H
  H29      1.0000 0.69795  0.09236  0.38375  Biso   1.000  H
  H30      1.0000 0.30205  0.90764  0.38375  Biso   1.000  H
  H31      1.0000 0.90764  0.69795  0.38375  Biso   1.000  H
  H32      1.0000 0.09236  0.30205  0.38375  Biso   1.000  H
  H33      1.0000 0.64596  0.05093  0.38693  Biso   1.000  H
  H34      1.0000 0.35404  0.94907  0.38693  Biso   1.000  H
  H35      1.0000 0.94907  0.64596  0.38693  Biso   1.000  H
  H36      1.0000 0.05093  0.35404  0.38693  Biso   1.000  H
  C61      1.0000 0.72370  0.22596  0.23805  Biso   1.000  C
  C62      1.0000 0.27630  0.77404  0.23805  Biso   1.000  C
  C63      1.0000 0.77404  0.72370  0.23805  Biso   1.000  C
  C64      1.0000 0.22596  0.27630  0.23805  Biso   1.000  C
  C65      1.0000 0.71952  0.26208  0.18210  Biso   1.000  C
  C66      1.0000 0.28048  0.73792  0.18210  Biso   1.000  C
  C67      1.0000 0.73792  0.71952  0.18210  Biso   1.000  C
  C68      1.0000 0.26208  0.28048  0.18210  Biso   1.000  C
  C69      1.0000 0.74834  0.28633  0.19329  Biso   1.000  C
  C70      1.0000 0.25166  0.71367  0.19329  Biso   1.000  C
  C71      1.0000 0.71367  0.74834  0.19329  Biso   1.000  C
  C72      1.0000 0.28633  0.25166  0.19329  Biso   1.000  C
  C73      1.0000 0.78594  0.23865  0.31664  Biso   1.000  C
  C74      1.0000 0.21406  0.76135  0.31664  Biso   1.000  C
  C75      1.0000 0.76135  0.78594  0.31664  Biso   1.000  C
  C76      1.0000 0.23865  0.21406  0.31664  Biso   1.000  C
  C77      1.0000 0.75713  0.21440  0.30546  Biso   1.000  C
  C78      1.0000 0.24287  0.78560  0.30546  Biso   1.000  C
  C79      1.0000 0.78560  0.75713  0.30546  Biso   1.000  C
  C80      1.0000 0.21440  0.24287  0.30546  Biso   1.000  C
  H37      1.0000 0.69351  0.27133  0.12935  Biso   1.000  H
  H38      1.0000 0.30649  0.72867  0.12935  Biso   1.000  H
  H39      1.0000 0.72867  0.69351  0.12935  Biso   1.000  H
  H40      1.0000 0.27133  0.30649  0.12935  Biso   1.000  H
  H41      1.0000 0.74436  0.31438  0.14872  Biso   1.000  H
  H42      1.0000 0.25564  0.68562  0.14872  Biso   1.000  H
  H43      1.0000 0.68562  0.74436  0.14872  Biso   1.000  H
  H44      1.0000 0.31438  0.25564  0.14872  Biso   1.000  H
  H45      1.0000 0.81195  0.22941  0.36941  Biso   1.000  H
  H46      1.0000 0.18805  0.77059  0.36941  Biso   1.000  H
  H47      1.0000 0.77059  0.81195  0.36941  Biso   1.000  H
  H48      1.0000 0.22941  0.18805  0.36941  Biso   1.000  H
  H49      1.0000 0.76110  0.18635  0.35005  Biso   1.000  H
  H50      1.0000 0.23890  0.81365  0.35005  Biso   1.000  H
  H51      1.0000 0.81365  0.76110  0.35005  Biso   1.000  H
  H52      1.0000 0.18635  0.23890  0.35005  Biso   1.000  H
  C81      1.0000 0.87211  0.35429  0.29491  Biso   1.000  C
  C82      1.0000 0.12789  0.64571  0.29491  Biso   1.000  C
  C83      1.0000 0.64571  0.87211  0.29491  Biso   1.000  C
  C84      1.0000 0.35429  0.12789  0.29491  Biso   1.000  C
  C85      1.0000 0.90036  0.37882  0.31071  Biso   1.000  C
  C86      1.0000 0.09964  0.62118  0.31071  Biso   1.000  C
  C87      1.0000 0.62118  0.90036  0.31071  Biso   1.000  C
  C88      1.0000 0.37882  0.09964  0.31071  Biso   1.000  C
  C89      1.0000 0.89742  0.41451  0.24635  Biso   1.000  C
  C90      1.0000 0.10258  0.58549  0.24635  Biso   1.000  C
  C91      1.0000 0.58549  0.89742  0.24635  Biso   1.000  C
  C92      1.0000 0.41451  0.10258  0.24635  Biso   1.000  C
  C93      1.0000 0.86319  0.42331  0.17408  Biso   1.000  C
  C94      1.0000 0.13681  0.57669  0.17408  Biso   1.000  C
  C95      1.0000 0.57669  0.86319  0.17408  Biso   1.000  C
  C96      1.0000 0.42331  0.13681  0.17408  Biso   1.000  C
  C97      1.0000 0.83373  0.39930  0.16764  Biso   1.000  C
  C98      1.0000 0.16627  0.60070  0.16764  Biso   1.000  C
  C99      1.0000 0.60070  0.83373  0.16764  Biso   1.000  C
  C100     1.0000 0.39930  0.16627  0.16764  Biso   1.000  C
  H53      1.0000 0.87743  0.32693  0.34074  Biso   1.000  H
  H54      1.0000 0.12257  0.67307  0.34074  Biso   1.000  H
  H55      1.0000 0.67307  0.87743  0.34074  Biso   1.000  H
  H56      1.0000 0.32693  0.12257  0.34074  Biso   1.000  H
  H57      1.0000 0.92397  0.36979  0.38157  Biso   1.000  H
  H58      1.0000 0.07603  0.63021  0.38157  Biso   1.000  H
  H59      1.0000 0.63021  0.92397  0.38157  Biso   1.000  H
  H60      1.0000 0.36979  0.07603  0.38157  Biso   1.000  H
  H61      1.0000 0.85970  0.44958  0.11146  Biso   1.000  H
  H62      1.0000 0.14030  0.55042  0.11146  Biso   1.000  H
  H63      1.0000 0.55042  0.85970  0.11146  Biso   1.000  H
  H64      1.0000 0.44958  0.14030  0.11146  Biso   1.000  H
  H65      1.0000 0.80759  0.40821  0.11478  Biso   1.000  H
  H66      1.0000 0.19241  0.59179  0.11478  Biso   1.000  H
  H67      1.0000 0.59179  0.80759  0.11478  Biso   1.000  H
  H68      1.0000 0.40821  0.19241  0.11478  Biso   1.000  H
  C101     1.0000 0.69339  0.20074  0.22590  Biso   1.000  C
  C102     1.0000 0.30661  0.79926  0.22590  Biso   1.000  C
  C103     1.0000 0.79926  0.69339  0.22590  Biso   1.000  C
  C104     1.0000 0.20074  0.30661  0.22590  Biso   1.000  C
  C105     1.0000 0.69607  0.16498  0.27893  Biso   1.000  C
  C106     1.0000 0.30393  0.83502  0.27893  Biso   1.000  C
  C107     1.0000 0.83502  0.69607  0.27893  Biso   1.000  C
  C108     1.0000 0.16498  0.30393  0.27893  Biso   1.000  C
  C109     1.0000 0.66762  0.13743  0.27228  Biso   1.000  C
  C110     1.0000 0.33238  0.86257  0.27228  Biso   1.000  C
  C111     1.0000 0.86257  0.66762  0.27228  Biso   1.000  C
  C112     1.0000 0.13743  0.33238  0.27228  Biso   1.000  C
  H69      1.0000 0.72200  0.15625  0.33083  Biso   1.000  H
  H70      1.0000 0.27800  0.84375  0.33083  Biso   1.000  H
  H71      1.0000 0.84375  0.72200  0.33083  Biso   1.000  H
  H72      1.0000 0.15625  0.27800  0.33083  Biso   1.000  H
  C113     1.0000 0.81210  0.29995  0.27286  Biso   1.000  C
  C114     1.0000 0.18790  0.70005  0.27286  Biso   1.000  C
  C115     1.0000 0.70005  0.81210  0.27286  Biso   1.000  C
  C116     1.0000 0.29995  0.18790  0.27286  Biso   1.000  C
  C117     1.0000 0.83796  0.36318  0.22642  Biso   1.000  C
  C118     1.0000 0.16204  0.63682  0.22642  Biso   1.000  C
  C119     1.0000 0.63682  0.83796  0.22642  Biso   1.000  C
  C120     1.0000 0.36318  0.16204  0.22642  Biso   1.000  C
  C121     1.0000 0.80947  0.33569  0.21981  Biso   1.000  C
  C122     1.0000 0.19053  0.66431  0.21981  Biso   1.000  C
  C123     1.0000 0.66431  0.80947  0.21981  Biso   1.000  C
  C124     1.0000 0.33569  0.19053  0.21981  Biso   1.000  C
  C125     1.0000 0.78177  0.27476  0.26069  Biso   1.000  C
  C126     1.0000 0.21823  0.72524  0.26069  Biso   1.000  C
  C127     1.0000 0.72524  0.78177  0.26069  Biso   1.000  C
  C128     1.0000 0.27476  0.21823  0.26069  Biso   1.000  C
  H73      1.0000 0.78354  0.34445  0.16794  Biso   1.000  H
  H74      1.0000 0.21646  0.65555  0.16794  Biso   1.000  H
  H75      1.0000 0.65555  0.78354  0.16794  Biso   1.000  H
  H76      1.0000 0.34445  0.21646  0.16794  Biso   1.000  H
  N9       1.0000 0.63414  0.22744  0.09818  Biso   1.000  N
  N10      1.0000 0.36586  0.77256  0.09818  Biso   1.000  N
  N11      1.0000 0.77256  0.63414  0.09818  Biso   1.000  N
  N12      1.0000 0.22744  0.36586  0.09818  Biso   1.000  N
  C129     1.0000 0.66106  0.21633  0.15489  Biso   1.000  C
  C130     1.0000 0.33894  0.78367  0.15489  Biso   1.000  C
  C131     1.0000 0.78367  0.66106  0.15489  Biso   1.000  C
  C132     1.0000 0.21633  0.33894  0.15489  Biso   1.000  C
  C133     1.0000 0.84443  0.28436  0.34391  Biso   1.000  C
  C134     1.0000 0.15557  0.71564  0.34391  Biso   1.000  C
  C135     1.0000 0.71564  0.84443  0.34391  Biso   1.000  C
  C136     1.0000 0.28436  0.15557  0.34391  Biso   1.000  C
  N13      1.0000 0.87135  0.27325  0.40063  Biso   1.000  N
  N14      1.0000 0.12865  0.72675  0.40063  Biso   1.000  N
  N15      1.0000 0.72675  0.87135  0.40063  Biso   1.000  N
  N16      1.0000 0.27325  0.12865  0.40063  Biso   1.000  N
  C137     1.0000 0.47214  0.88465  0.75462  Biso   1.000  C
  C138     1.0000 0.52786  0.11535  0.75462  Biso   1.000  C
  C139     1.0000 0.11535  0.47214  0.75462  Biso   1.000  C
  C140     1.0000 0.88465  0.52786  0.75462  Biso   1.000  C
  C141     1.0000 0.50913  0.88092  0.74541  Biso   1.000  C
  C142     1.0000 0.49087  0.11908  0.74541  Biso   1.000  C
  C143     1.0000 0.11908  0.50913  0.74541  Biso   1.000  C
  C144     1.0000 0.88092  0.49087  0.74541  Biso   1.000  C
  C145     1.0000 0.52479  0.91728  0.74882  Biso   1.000  C
  C146     1.0000 0.47521  0.08272  0.74882  Biso   1.000  C
  C147     1.0000 0.08272  0.52479  0.74882  Biso   1.000  C
  C148     1.0000 0.91728  0.47521  0.74882  Biso   1.000  C
  C149     1.0000 0.46375  0.92341  0.75084  Biso   1.000  C
  C150     1.0000 0.53625  0.07659  0.75084  Biso   1.000  C
  C151     1.0000 0.07659  0.46375  0.75084  Biso   1.000  C
  C152     1.0000 0.92341  0.53625  0.75084  Biso   1.000  C
  N17      1.0000 0.49649  0.94266  0.74999  Biso   1.000  N
  N18      1.0000 0.50351  0.05734  0.74999  Biso   1.000  N
  N19      1.0000 0.05734  0.49649  0.74999  Biso   1.000  N
  N20      1.0000 0.94266  0.50351  0.74999  Biso   1.000  N
  C153     1.0000 0.42809  0.93904  0.74975  Biso   1.000  C
  C154     1.0000 0.57191  0.06096  0.74975  Biso   1.000  C
  C155     1.0000 0.06096  0.42809  0.74975  Biso   1.000  C
  C156     1.0000 0.93904  0.57191  0.74975  Biso   1.000  C
  C157     1.0000 0.42091  0.97727  0.74897  Biso   1.000  C
  C158     1.0000 0.57909  0.02273  0.74897  Biso   1.000  C
  C159     1.0000 0.02273  0.42091  0.74897  Biso   1.000  C
  C160     1.0000 0.97727  0.57909  0.74897  Biso   1.000  C
  N21      1.0000 0.44494  0.00585  0.74996  Biso   1.000  N
  N22      1.0000 0.55506  0.99415  0.74996  Biso   1.000  N
  N23      1.0000 0.99415  0.44494  0.74996  Biso   1.000  N
  N24      1.0000 0.00585  0.55506  0.74996  Biso   1.000  N
  C161     1.0000 0.42706  0.03860  0.75066  Biso   1.000  C
  C162     1.0000 0.57294  0.96140  0.75066  Biso   1.000  C
  C163     1.0000 0.96140  0.42706  0.75066  Biso   1.000  C
  C164     1.0000 0.03860  0.57294  0.75066  Biso   1.000  C
  C165     1.0000 0.38466  0.99306  0.74557  Biso   1.000  C
  C166     1.0000 0.61534  0.00694  0.74557  Biso   1.000  C
  C167     1.0000 0.00694  0.38466  0.74557  Biso   1.000  C
  C168     1.0000 0.99306  0.61534  0.74557  Biso   1.000  C
  C169     1.0000 0.38837  0.03004  0.75435  Biso   1.000  C
  C170     1.0000 0.61163  0.96996  0.75435  Biso   1.000  C
  C171     1.0000 0.96996  0.38837  0.75435  Biso   1.000  C
  C172     1.0000 0.03004  0.61163  0.75435  Biso   1.000  C
  C173     1.0000 0.44187  0.07466  0.74947  Biso   1.000  C
  C174     1.0000 0.55813  0.92534  0.74947  Biso   1.000  C
  C175     1.0000 0.92534  0.44187  0.74947  Biso   1.000  C
  C176     1.0000 0.07466  0.55813  0.74947  Biso   1.000  C
  H77      1.0000 0.45464  0.86053  0.76780  Biso   1.000  H
  H78      1.0000 0.54536  0.13947  0.76780  Biso   1.000  H
  H79      1.0000 0.13947  0.45464  0.76780  Biso   1.000  H
  H80      1.0000 0.86053  0.54536  0.76780  Biso   1.000  H
  H81      1.0000 0.52175  0.85390  0.73211  Biso   1.000  H
  H82      1.0000 0.47825  0.14610  0.73211  Biso   1.000  H
  H83      1.0000 0.14610  0.52175  0.73211  Biso   1.000  H
  H84      1.0000 0.85390  0.47825  0.73211  Biso   1.000  H
  H85      1.0000 0.47317  0.00307  0.74986  Biso   1.000  H
  H86      1.0000 0.52683  0.99693  0.74986  Biso   1.000  H
  H87      1.0000 0.99693  0.47317  0.74986  Biso   1.000  H
  H88      1.0000 0.00307  0.52683  0.74986  Biso   1.000  H
  H89      1.0000 0.35771  0.98035  0.73170  Biso   1.000  H
  H90      1.0000 0.64229  0.01965  0.73170  Biso   1.000  H
  H91      1.0000 0.01965  0.35771  0.73170  Biso   1.000  H
  H92      1.0000 0.98035  0.64229  0.73170  Biso   1.000  H
  H93      1.0000 0.36434  0.04761  0.76805  Biso   1.000  H
  H94      1.0000 0.63566  0.95239  0.76805  Biso   1.000  H
  H95      1.0000 0.95239  0.36434  0.76805  Biso   1.000  H
  H96      1.0000 0.04761  0.63566  0.76805  Biso   1.000  H
  C177     1.0000 0.60820  0.08604  0.75239  Biso   1.000  C
  C178     1.0000 0.39180  0.91396  0.75239  Biso   1.000  C
  C179     1.0000 0.91396  0.60820  0.75239  Biso   1.000  C
  C180     1.0000 0.08604  0.39180  0.75239  Biso   1.000  C
  C181     1.0000 0.60532  0.12174  0.68780  Biso   1.000  C
  C182     1.0000 0.39468  0.87826  0.68780  Biso   1.000  C
  C183     1.0000 0.87826  0.60532  0.68780  Biso   1.000  C
  C184     1.0000 0.12174  0.39468  0.68780  Biso   1.000  C
  C185     1.0000 0.63351  0.14633  0.70361  Biso   1.000  C
  C186     1.0000 0.36649  0.85367  0.70361  Biso   1.000  C
  C187     1.0000 0.85367  0.63351  0.70361  Biso   1.000  C
  C188     1.0000 0.14633  0.36649  0.70361  Biso   1.000  C
  C189     1.0000 0.67183  0.10129  0.83091  Biso   1.000  C
  C190     1.0000 0.32817  0.89871  0.83091  Biso   1.000  C
  C191     1.0000 0.89871  0.67183  0.83091  Biso   1.000  C
  C192     1.0000 0.10129  0.32817  0.83091  Biso   1.000  C
  C193     1.0000 0.64242  0.07720  0.82451  Biso   1.000  C
  C194     1.0000 0.35758  0.92280  0.82451  Biso   1.000  C
  C195     1.0000 0.92280  0.64242  0.82451  Biso   1.000  C
  C196     1.0000 0.07720  0.35758  0.82451  Biso   1.000  C
  H97      1.0000 0.58171  0.13071  0.61673  Biso   1.000  H
  H98      1.0000 0.41829  0.86929  0.61673  Biso   1.000  H
  H99      1.0000 0.86929  0.58171  0.61673  Biso   1.000  H
  H100     1.0000 0.13071  0.41829  0.61673  Biso   1.000  H
  H101     1.0000 0.62818  0.17371  0.65777  Biso   1.000  H
  H102     1.0000 0.37182  0.82629  0.65777  Biso   1.000  H
  H103     1.0000 0.82629  0.62818  0.65777  Biso   1.000  H
  H104     1.0000 0.17371  0.37182  0.65777  Biso   1.000  H
  H105     1.0000 0.69795  0.09236  0.88375  Biso   1.000  H
  H106     1.0000 0.30205  0.90764  0.88375  Biso   1.000  H
  H107     1.0000 0.90764  0.69795  0.88375  Biso   1.000  H
  H108     1.0000 0.09236  0.30205  0.88375  Biso   1.000  H
  H109     1.0000 0.64596  0.05093  0.88693  Biso   1.000  H
  H110     1.0000 0.35404  0.94907  0.88693  Biso   1.000  H
  H111     1.0000 0.94907  0.64596  0.88693  Biso   1.000  H
  H112     1.0000 0.05093  0.35404  0.88693  Biso   1.000  H
  C197     1.0000 0.72370  0.22596  0.73806  Biso   1.000  C
  C198     1.0000 0.27630  0.77404  0.73806  Biso   1.000  C
  C199     1.0000 0.77404  0.72370  0.73806  Biso   1.000  C
  C200     1.0000 0.22596  0.27630  0.73806  Biso   1.000  C
  C201     1.0000 0.71952  0.26208  0.68210  Biso   1.000  C
  C202     1.0000 0.28048  0.73792  0.68210  Biso   1.000  C
  C203     1.0000 0.73792  0.71952  0.68210  Biso   1.000  C
  C204     1.0000 0.26208  0.28048  0.68210  Biso   1.000  C
  C205     1.0000 0.74834  0.28633  0.69329  Biso   1.000  C
  C206     1.0000 0.25166  0.71367  0.69329  Biso   1.000  C
  C207     1.0000 0.71367  0.74834  0.69329  Biso   1.000  C
  C208     1.0000 0.28633  0.25166  0.69329  Biso   1.000  C
  C209     1.0000 0.78594  0.23865  0.81664  Biso   1.000  C
  C210     1.0000 0.21406  0.76135  0.81664  Biso   1.000  C
  C211     1.0000 0.76135  0.78594  0.81664  Biso   1.000  C
  C212     1.0000 0.23865  0.21406  0.81664  Biso   1.000  C
  C213     1.0000 0.75713  0.21440  0.80546  Biso   1.000  C
  C214     1.0000 0.24287  0.78560  0.80546  Biso   1.000  C
  C215     1.0000 0.78560  0.75713  0.80546  Biso   1.000  C
  C216     1.0000 0.21440  0.24287  0.80546  Biso   1.000  C
  H113     1.0000 0.69351  0.27133  0.62935  Biso   1.000  H
  H114     1.0000 0.30649  0.72867  0.62935  Biso   1.000  H
  H115     1.0000 0.72867  0.69351  0.62935  Biso   1.000  H
  H116     1.0000 0.27133  0.30649  0.62935  Biso   1.000  H
  H117     1.0000 0.74436  0.31438  0.64872  Biso   1.000  H
  H118     1.0000 0.25564  0.68562  0.64872  Biso   1.000  H
  H119     1.0000 0.68562  0.74436  0.64872  Biso   1.000  H
  H120     1.0000 0.31438  0.25564  0.64872  Biso   1.000  H
  H121     1.0000 0.81195  0.22941  0.86941  Biso   1.000  H
  H122     1.0000 0.18805  0.77059  0.86941  Biso   1.000  H
  H123     1.0000 0.77059  0.81195  0.86941  Biso   1.000  H
  H124     1.0000 0.22941  0.18805  0.86941  Biso   1.000  H
  H125     1.0000 0.76110  0.18635  0.85005  Biso   1.000  H
  H126     1.0000 0.23890  0.81365  0.85005  Biso   1.000  H
  H127     1.0000 0.81365  0.76110  0.85005  Biso   1.000  H
  H128     1.0000 0.18635  0.23890  0.85005  Biso   1.000  H
  C217     1.0000 0.87211  0.35429  0.79492  Biso   1.000  C
  C218     1.0000 0.12789  0.64571  0.79492  Biso   1.000  C
  C219     1.0000 0.64571  0.87211  0.79492  Biso   1.000  C
  C220     1.0000 0.35429  0.12789  0.79492  Biso   1.000  C
  C221     1.0000 0.90036  0.37882  0.81071  Biso   1.000  C
  C222     1.0000 0.09964  0.62118  0.81071  Biso   1.000  C
  C223     1.0000 0.62118  0.90036  0.81071  Biso   1.000  C
  C224     1.0000 0.37882  0.09964  0.81071  Biso   1.000  C
  C225     1.0000 0.89742  0.41451  0.74635  Biso   1.000  C
  C226     1.0000 0.10258  0.58549  0.74635  Biso   1.000  C
  C227     1.0000 0.58549  0.89742  0.74635  Biso   1.000  C
  C228     1.0000 0.41451  0.10258  0.74635  Biso   1.000  C
  C229     1.0000 0.86319  0.42331  0.67408  Biso   1.000  C
  C230     1.0000 0.13681  0.57669  0.67408  Biso   1.000  C
  C231     1.0000 0.57669  0.86319  0.67408  Biso   1.000  C
  C232     1.0000 0.42331  0.13681  0.67408  Biso   1.000  C
  C233     1.0000 0.83373  0.39930  0.66764  Biso   1.000  C
  C234     1.0000 0.16627  0.60070  0.66764  Biso   1.000  C
  C235     1.0000 0.60070  0.83373  0.66764  Biso   1.000  C
  C236     1.0000 0.39930  0.16627  0.66764  Biso   1.000  C
  H129     1.0000 0.87743  0.32693  0.84074  Biso   1.000  H
  H130     1.0000 0.12257  0.67307  0.84074  Biso   1.000  H
  H131     1.0000 0.67307  0.87743  0.84074  Biso   1.000  H
  H132     1.0000 0.32693  0.12257  0.84074  Biso   1.000  H
  H133     1.0000 0.92397  0.36979  0.88157  Biso   1.000  H
  H134     1.0000 0.07603  0.63021  0.88157  Biso   1.000  H
  H135     1.0000 0.63021  0.92397  0.88157  Biso   1.000  H
  H136     1.0000 0.36979  0.07603  0.88157  Biso   1.000  H
  H137     1.0000 0.85970  0.44958  0.61147  Biso   1.000  H
  H138     1.0000 0.14030  0.55042  0.61147  Biso   1.000  H
  H139     1.0000 0.55042  0.85970  0.61147  Biso   1.000  H
  H140     1.0000 0.44958  0.14030  0.61147  Biso   1.000  H
  H141     1.0000 0.80759  0.40821  0.61478  Biso   1.000  H
  H142     1.0000 0.19241  0.59179  0.61478  Biso   1.000  H
  H143     1.0000 0.59179  0.80759  0.61478  Biso   1.000  H
  H144     1.0000 0.40821  0.19241  0.61478  Biso   1.000  H
  C237     1.0000 0.69339  0.20074  0.72590  Biso   1.000  C
  C238     1.0000 0.30661  0.79926  0.72590  Biso   1.000  C
  C239     1.0000 0.79926  0.69339  0.72590  Biso   1.000  C
  C240     1.0000 0.20074  0.30661  0.72590  Biso   1.000  C
  C241     1.0000 0.69607  0.16498  0.77894  Biso   1.000  C
  C242     1.0000 0.30393  0.83502  0.77894  Biso   1.000  C
  C243     1.0000 0.83502  0.69607  0.77894  Biso   1.000  C
  C244     1.0000 0.16498  0.30393  0.77894  Biso   1.000  C
  C245     1.0000 0.66762  0.13743  0.77229  Biso   1.000  C
  C246     1.0000 0.33238  0.86257  0.77229  Biso   1.000  C
  C247     1.0000 0.86257  0.66762  0.77229  Biso   1.000  C
  C248     1.0000 0.13743  0.33238  0.77229  Biso   1.000  C
  H145     1.0000 0.72200  0.15625  0.83083  Biso   1.000  H
  H146     1.0000 0.27800  0.84375  0.83083  Biso   1.000  H
  H147     1.0000 0.84375  0.72200  0.83083  Biso   1.000  H
  H148     1.0000 0.15625  0.27800  0.83083  Biso   1.000  H
  C249     1.0000 0.81210  0.29995  0.77286  Biso   1.000  C
  C250     1.0000 0.18790  0.70005  0.77286  Biso   1.000  C
  C251     1.0000 0.70005  0.81210  0.77286  Biso   1.000  C
  C252     1.0000 0.29995  0.18790  0.77286  Biso   1.000  C
  C253     1.0000 0.83796  0.36318  0.72642  Biso   1.000  C
  C254     1.0000 0.16204  0.63682  0.72642  Biso   1.000  C
  C255     1.0000 0.63682  0.83796  0.72642  Biso   1.000  C
  C256     1.0000 0.36318  0.16204  0.72642  Biso   1.000  C
  C257     1.0000 0.80947  0.33569  0.71981  Biso   1.000  C
  C258     1.0000 0.19053  0.66431  0.71981  Biso   1.000  C
  C259     1.0000 0.66431  0.80947  0.71981  Biso   1.000  C
  C260     1.0000 0.33569  0.19053  0.71981  Biso   1.000  C
  C261     1.0000 0.78177  0.27476  0.76069  Biso   1.000  C
  C262     1.0000 0.21823  0.72524  0.76069  Biso   1.000  C
  C263     1.0000 0.72524  0.78177  0.76069  Biso   1.000  C
  C264     1.0000 0.27476  0.21823  0.76069  Biso   1.000  C
  H149     1.0000 0.78354  0.34445  0.66794  Biso   1.000  H
  H150     1.0000 0.21646  0.65555  0.66794  Biso   1.000  H
  H151     1.0000 0.65555  0.78354  0.66794  Biso   1.000  H
  H152     1.0000 0.34445  0.21646  0.66794  Biso   1.000  H
  N25      1.0000 0.63414  0.22744  0.59818  Biso   1.000  N
  N26      1.0000 0.36586  0.77256  0.59818  Biso   1.000  N
  N27      1.0000 0.77256  0.63414  0.59818  Biso   1.000  N
  N28      1.0000 0.22744  0.36586  0.59818  Biso   1.000  N
  C265     1.0000 0.66106  0.21633  0.65489  Biso   1.000  C
  C266     1.0000 0.33894  0.78367  0.65489  Biso   1.000  C
  C267     1.0000 0.78367  0.66106  0.65489  Biso   1.000  C
  C268     1.0000 0.21633  0.33894  0.65489  Biso   1.000  C
  C269     1.0000 0.84443  0.28436  0.84391  Biso   1.000  C
  C270     1.0000 0.15557  0.71564  0.84391  Biso   1.000  C
  C271     1.0000 0.71564  0.84443  0.84391  Biso   1.000  C
  C272     1.0000 0.28436  0.15557  0.84391  Biso   1.000  C
  N29      1.0000 0.87135  0.27325  0.90063  Biso   1.000  N
  N30      1.0000 0.12865  0.72675  0.90063  Biso   1.000  N
  N31      1.0000 0.72675  0.87135  0.90063  Biso   1.000  N
  N32      1.0000 0.27325  0.12865  0.90063  Biso   1.000  N
