data_image0
_cell_length_a       24.6865
_cell_length_b       24.6865
_cell_length_c       7.0004
_cell_angle_alpha    90
_cell_angle_beta     90
_cell_angle_gamma    120

_symmetry_space_group_name_H-M    "P 1"
_symmetry_int_tables_number       1

loop_
  _symmetry_equiv_pos_as_xyz
  'x, y, z'

loop_
  _atom_site_label
  _atom_site_occupancy
  _atom_site_fract_x
  _atom_site_fract_y
  _atom_site_fract_z
  _atom_site_thermal_displace_type
  _atom_site_B_iso_or_equiv
  _atom_site_type_symbol
  C1       1.0000 0.33302  0.72290  0.25000  Biso   1.000  C
  C2       1.0000 0.27710  0.61012  0.25000  Biso   1.000  C
  C3       1.0000 0.38988  0.66698  0.25000  Biso   1.000  C
  C4       1.0000 0.66698  0.27710  0.25000  Biso   1.000  C
  C5       1.0000 0.72290  0.38988  0.25000  Biso   1.000  C
  C6       1.0000 0.61012  0.33302  0.25000  Biso   1.000  C
  C7       1.0000 0.44580  0.66674  0.25000  Biso   1.000  C
  C8       1.0000 0.33326  0.77906  0.25000  Biso   1.000  C
  C9       1.0000 0.22094  0.55420  0.25000  Biso   1.000  C
  C10      1.0000 0.55420  0.33326  0.25000  Biso   1.000  C
  C11      1.0000 0.66674  0.22094  0.25000  Biso   1.000  C
  C12      1.0000 0.77906  0.44580  0.25000  Biso   1.000  C
  C13      1.0000 0.44534  0.61102  0.25000  Biso   1.000  C
  C14      1.0000 0.38898  0.83432  0.25000  Biso   1.000  C
  C15      1.0000 0.16568  0.55466  0.25000  Biso   1.000  C
  C16      1.0000 0.55466  0.38898  0.25000  Biso   1.000  C
  C17      1.0000 0.61102  0.16568  0.25000  Biso   1.000  C
  C18      1.0000 0.83432  0.44534  0.25000  Biso   1.000  C
  O1       1.0000 0.38707  0.49825  0.25000  Biso   1.000  O
  O2       1.0000 0.50175  0.88882  0.25000  Biso   1.000  O
  O3       1.0000 0.11118  0.61293  0.25000  Biso   1.000  O
  O4       1.0000 0.61293  0.50175  0.25000  Biso   1.000  O
  O5       1.0000 0.49825  0.11118  0.25000  Biso   1.000  O
  O6       1.0000 0.88882  0.38707  0.25000  Biso   1.000  O
  C19      1.0000 0.44325  0.49883  0.25000  Biso   1.000  C
  C20      1.0000 0.50117  0.94442  0.25000  Biso   1.000  C
  C21      1.0000 0.05558  0.55675  0.25000  Biso   1.000  C
  C22      1.0000 0.55675  0.50117  0.25000  Biso   1.000  C
  C23      1.0000 0.49883  0.05558  0.25000  Biso   1.000  C
  C24      1.0000 0.94442  0.44325  0.25000  Biso   1.000  C
  O7       1.0000 0.61526  0.66936  0.25000  Biso   1.000  O
  O8       1.0000 0.33064  0.94590  0.25000  Biso   1.000  O
  O9       1.0000 0.05410  0.38474  0.25000  Biso   1.000  O
  O10      1.0000 0.38474  0.33064  0.25000  Biso   1.000  O
  O11      1.0000 0.66936  0.05410  0.25000  Biso   1.000  O
  O12      1.0000 0.94590  0.61526  0.25000  Biso   1.000  O
  C25      1.0000 0.72293  0.33309  0.25000  Biso   1.000  C
  C26      1.0000 0.66691  0.38984  0.25000  Biso   1.000  C
  C27      1.0000 0.61016  0.27707  0.25000  Biso   1.000  C
  C28      1.0000 0.27707  0.66691  0.25000  Biso   1.000  C
  C29      1.0000 0.33309  0.61016  0.25000  Biso   1.000  C
  C30      1.0000 0.38984  0.72293  0.25000  Biso   1.000  C
  C31      1.0000 0.66662  0.44573  0.25000  Biso   1.000  C
  C32      1.0000 0.55427  0.22089  0.25000  Biso   1.000  C
  C33      1.0000 0.77911  0.33338  0.25000  Biso   1.000  C
  C34      1.0000 0.33338  0.55427  0.25000  Biso   1.000  C
  C35      1.0000 0.44573  0.77911  0.25000  Biso   1.000  C
  C36      1.0000 0.22089  0.66662  0.25000  Biso   1.000  C
  C37      1.0000 0.61088  0.44522  0.25000  Biso   1.000  C
  C38      1.0000 0.55478  0.16566  0.25000  Biso   1.000  C
  C39      1.0000 0.83434  0.38912  0.25000  Biso   1.000  C
  C40      1.0000 0.38912  0.55478  0.25000  Biso   1.000  C
  C41      1.0000 0.44522  0.83434  0.25000  Biso   1.000  C
  C42      1.0000 0.16566  0.61088  0.25000  Biso   1.000  C
  O13      1.0000 0.49815  0.38694  0.25000  Biso   1.000  O
  O14      1.0000 0.61306  0.11121  0.25000  Biso   1.000  O
  O15      1.0000 0.88879  0.50185  0.25000  Biso   1.000  O
  O16      1.0000 0.50185  0.61306  0.25000  Biso   1.000  O
  O17      1.0000 0.38694  0.88879  0.25000  Biso   1.000  O
  O18      1.0000 0.11121  0.49815  0.25000  Biso   1.000  O
  C43      1.0000 0.49922  0.44368  0.25000  Biso   1.000  C
  C44      1.0000 0.55632  0.05554  0.25000  Biso   1.000  C
  C45      1.0000 0.94446  0.50078  0.25000  Biso   1.000  C
  C46      1.0000 0.50078  0.55632  0.25000  Biso   1.000  C
  C47      1.0000 0.44368  0.94446  0.25000  Biso   1.000  C
  C48      1.0000 0.05554  0.49922  0.25000  Biso   1.000  C
  O19      1.0000 0.67987  0.63248  0.25000  Biso   1.000  O
  O20      1.0000 0.36752  0.04739  0.25000  Biso   1.000  O
  O21      1.0000 0.95261  0.32013  0.25000  Biso   1.000  O
  O22      1.0000 0.32013  0.36752  0.25000  Biso   1.000  O
  O23      1.0000 0.63248  0.95261  0.25000  Biso   1.000  O
  O24      1.0000 0.04739  0.67987  0.25000  Biso   1.000  O
  C49      1.0000 0.55856  0.55859  0.25000  Biso   1.000  C
  C50      1.0000 0.44141  0.99997  0.25000  Biso   1.000  C
  C51      1.0000 0.00003  0.44144  0.25000  Biso   1.000  C
  C52      1.0000 0.44144  0.44141  0.25000  Biso   1.000  C
  C53      1.0000 0.55859  0.00003  0.25000  Biso   1.000  C
  C54      1.0000 0.99997  0.55856  0.25000  Biso   1.000  C
  C55      1.0000 0.61881  0.62208  0.25000  Biso   1.000  C
  C56      1.0000 0.37792  0.99673  0.25000  Biso   1.000  C
  C57      1.0000 0.00327  0.38119  0.25000  Biso   1.000  C
  C58      1.0000 0.38119  0.37792  0.25000  Biso   1.000  C
  C59      1.0000 0.62208  0.00327  0.25000  Biso   1.000  C
  C60      1.0000 0.99673  0.61881  0.25000  Biso   1.000  C
  H1       1.0000 0.68822  0.59697  0.25000  Biso   1.000  H
  H2       1.0000 0.40303  0.09125  0.25000  Biso   1.000  H
  H3       1.0000 0.90875  0.31178  0.25000  Biso   1.000  H
  H4       1.0000 0.31178  0.40303  0.25000  Biso   1.000  H
  H5       1.0000 0.59697  0.90875  0.25000  Biso   1.000  H
  H6       1.0000 0.09125  0.68822  0.25000  Biso   1.000  H
  H7       1.0000 0.71242  0.49197  0.25000  Biso   1.000  H
  H8       1.0000 0.50803  0.22045  0.25000  Biso   1.000  H
  H9       1.0000 0.77955  0.28758  0.25000  Biso   1.000  H
  H10      1.0000 0.28758  0.50803  0.25000  Biso   1.000  H
  H11      1.0000 0.49197  0.77955  0.25000  Biso   1.000  H
  H12      1.0000 0.22045  0.71242  0.25000  Biso   1.000  H
  H13      1.0000 0.50798  0.28743  0.25000  Biso   1.000  H
  H14      1.0000 0.71257  0.22055  0.25000  Biso   1.000  H
  H15      1.0000 0.77945  0.49202  0.25000  Biso   1.000  H
  H16      1.0000 0.49202  0.71257  0.25000  Biso   1.000  H
  H17      1.0000 0.28743  0.77945  0.25000  Biso   1.000  H
  H18      1.0000 0.22055  0.50798  0.25000  Biso   1.000  H
  C61      1.0000 0.33302  0.72290  0.75000  Biso   1.000  C
  C62      1.0000 0.27710  0.61012  0.75000  Biso   1.000  C
  C63      1.0000 0.38988  0.66698  0.75000  Biso   1.000  C
  C64      1.0000 0.66698  0.27710  0.75000  Biso   1.000  C
  C65      1.0000 0.72290  0.38988  0.75000  Biso   1.000  C
  C66      1.0000 0.61012  0.33302  0.75000  Biso   1.000  C
  C67      1.0000 0.44580  0.66674  0.75000  Biso   1.000  C
  C68      1.0000 0.33326  0.77906  0.75000  Biso   1.000  C
  C69      1.0000 0.22094  0.55420  0.75000  Biso   1.000  C
  C70      1.0000 0.55420  0.33326  0.75000  Biso   1.000  C
  C71      1.0000 0.66674  0.22094  0.75000  Biso   1.000  C
  C72      1.0000 0.77906  0.44580  0.75000  Biso   1.000  C
  C73      1.0000 0.44534  0.61102  0.75000  Biso   1.000  C
  C74      1.0000 0.38898  0.83432  0.75000  Biso   1.000  C
  C75      1.0000 0.16568  0.55466  0.75000  Biso   1.000  C
  C76      1.0000 0.55466  0.38898  0.75000  Biso   1.000  C
  C77      1.0000 0.61102  0.16568  0.75000  Biso   1.000  C
  C78      1.0000 0.83432  0.44534  0.75000  Biso   1.000  C
  O25      1.0000 0.38707  0.49825  0.75000  Biso   1.000  O
  O26      1.0000 0.50175  0.88882  0.75000  Biso   1.000  O
  O27      1.0000 0.11118  0.61293  0.75000  Biso   1.000  O
  O28      1.0000 0.61293  0.50175  0.75000  Biso   1.000  O
  O29      1.0000 0.49825  0.11118  0.75000  Biso   1.000  O
  O30      1.0000 0.88882  0.38707  0.75000  Biso   1.000  O
  C79      1.0000 0.44325  0.49883  0.75000  Biso   1.000  C
  C80      1.0000 0.50117  0.94442  0.75000  Biso   1.000  C
  C81      1.0000 0.05558  0.55675  0.75000  Biso   1.000  C
  C82      1.0000 0.55675  0.50117  0.75000  Biso   1.000  C
  C83      1.0000 0.49883  0.05558  0.75000  Biso   1.000  C
  C84      1.0000 0.94442  0.44325  0.75000  Biso   1.000  C
  O31      1.0000 0.61526  0.66936  0.75000  Biso   1.000  O
  O32      1.0000 0.33064  0.94590  0.75000  Biso   1.000  O
  O33      1.0000 0.05410  0.38474  0.75000  Biso   1.000  O
  O34      1.0000 0.38474  0.33064  0.75000  Biso   1.000  O
  O35      1.0000 0.66936  0.05410  0.75000  Biso   1.000  O
  O36      1.0000 0.94590  0.61526  0.75000  Biso   1.000  O
  C85      1.0000 0.72293  0.33309  0.75000  Biso   1.000  C
  C86      1.0000 0.66691  0.38984  0.75000  Biso   1.000  C
  C87      1.0000 0.61016  0.27707  0.75000  Biso   1.000  C
  C88      1.0000 0.27707  0.66691  0.75000  Biso   1.000  C
  C89      1.0000 0.33309  0.61016  0.75000  Biso   1.000  C
  C90      1.0000 0.38984  0.72293  0.75000  Biso   1.000  C
  C91      1.0000 0.66662  0.44573  0.75000  Biso   1.000  C
  C92      1.0000 0.55427  0.22089  0.75000  Biso   1.000  C
  C93      1.0000 0.77911  0.33338  0.75000  Biso   1.000  C
  C94      1.0000 0.33338  0.55427  0.75000  Biso   1.000  C
  C95      1.0000 0.44573  0.77911  0.75000  Biso   1.000  C
  C96      1.0000 0.22089  0.66662  0.75000  Biso   1.000  C
  C97      1.0000 0.61088  0.44522  0.75000  Biso   1.000  C
  C98      1.0000 0.55478  0.16566  0.75000  Biso   1.000  C
  C99      1.0000 0.83434  0.38912  0.75000  Biso   1.000  C
  C100     1.0000 0.38912  0.55478  0.75000  Biso   1.000  C
  C101     1.0000 0.44522  0.83434  0.75000  Biso   1.000  C
  C102     1.0000 0.16566  0.61088  0.75000  Biso   1.000  C
  O37      1.0000 0.49815  0.38694  0.75000  Biso   1.000  O
  O38      1.0000 0.61306  0.11121  0.75000  Biso   1.000  O
  O39      1.0000 0.88879  0.50185  0.75000  Biso   1.000  O
  O40      1.0000 0.50185  0.61306  0.75000  Biso   1.000  O
  O41      1.0000 0.38694  0.88879  0.75000  Biso   1.000  O
  O42      1.0000 0.11121  0.49815  0.75000  Biso   1.000  O
  C103     1.0000 0.49922  0.44368  0.75000  Biso   1.000  C
  C104     1.0000 0.55632  0.05554  0.75000  Biso   1.000  C
  C105     1.0000 0.94446  0.50078  0.75000  Biso   1.000  C
  C106     1.0000 0.50078  0.55632  0.75000  Biso   1.000  C
  C107     1.0000 0.44368  0.94446  0.75000  Biso   1.000  C
  C108     1.0000 0.05554  0.49922  0.75000  Biso   1.000  C
  O43      1.0000 0.67987  0.63248  0.75000  Biso   1.000  O
  O44      1.0000 0.36752  0.04739  0.75000  Biso   1.000  O
  O45      1.0000 0.95261  0.32013  0.75000  Biso   1.000  O
  O46      1.0000 0.32013  0.36752  0.75000  Biso   1.000  O
  O47      1.0000 0.63248  0.95261  0.75000  Biso   1.000  O
  O48      1.0000 0.04739  0.67987  0.75000  Biso   1.000  O
  C109     1.0000 0.55856  0.55859  0.75000  Biso   1.000  C
  C110     1.0000 0.44141  0.99997  0.75000  Biso   1.000  C
  C111     1.0000 0.00003  0.44144  0.75000  Biso   1.000  C
  C112     1.0000 0.44144  0.44141  0.75000  Biso   1.000  C
  C113     1.0000 0.55859  0.00003  0.75000  Biso   1.000  C
  C114     1.0000 0.99997  0.55856  0.75000  Biso   1.000  C
  C115     1.0000 0.61881  0.62208  0.75000  Biso   1.000  C
  C116     1.0000 0.37792  0.99673  0.75000  Biso   1.000  C
  C117     1.0000 0.00327  0.38119  0.75000  Biso   1.000  C
  C118     1.0000 0.38119  0.37792  0.75000  Biso   1.000  C
  C119     1.0000 0.62208  0.00327  0.75000  Biso   1.000  C
  C120     1.0000 0.99673  0.61881  0.75000  Biso   1.000  C
  H19      1.0000 0.68822  0.59697  0.75000  Biso   1.000  H
  H20      1.0000 0.40303  0.09125  0.75000  Biso   1.000  H
  H21      1.0000 0.90875  0.31178  0.75000  Biso   1.000  H
  H22      1.0000 0.31178  0.40303  0.75000  Biso   1.000  H
  H23      1.0000 0.59697  0.90875  0.75000  Biso   1.000  H
  H24      1.0000 0.09125  0.68822  0.75000  Biso   1.000  H
  H25      1.0000 0.71242  0.49197  0.75000  Biso   1.000  H
  H26      1.0000 0.50803  0.22045  0.75000  Biso   1.000  H
  H27      1.0000 0.77955  0.28758  0.75000  Biso   1.000  H
  H28      1.0000 0.28758  0.50803  0.75000  Biso   1.000  H
  H29      1.0000 0.49197  0.77955  0.75000  Biso   1.000  H
  H30      1.0000 0.22045  0.71242  0.75000  Biso   1.000  H
  H31      1.0000 0.50798  0.28743  0.75000  Biso   1.000  H
  H32      1.0000 0.71257  0.22055  0.75000  Biso   1.000  H
  H33      1.0000 0.77945  0.49202  0.75000  Biso   1.000  H
  H34      1.0000 0.49202  0.71257  0.75000  Biso   1.000  H
  H35      1.0000 0.28743  0.77945  0.75000  Biso   1.000  H
  H36      1.0000 0.22055  0.50798  0.75000  Biso   1.000  H
