data_image0
_cell_length_a       24.7714
_cell_length_b       24.7714
_cell_length_c       6.9248
_cell_angle_alpha    90
_cell_angle_beta     90
_cell_angle_gamma    120

_symmetry_space_group_name_H-M    "P 1"
_symmetry_int_tables_number       1

loop_
  _symmetry_equiv_pos_as_xyz
  'x, y, z'

loop_
  _atom_site_label
  _atom_site_occupancy
  _atom_site_fract_x
  _atom_site_fract_y
  _atom_site_fract_z
  _atom_site_thermal_displace_type
  _atom_site_B_iso_or_equiv
  _atom_site_type_symbol
  C1       1.0000 0.33308  0.72299  0.25000  Biso   1.000  C
  C2       1.0000 0.27701  0.61009  0.25000  Biso   1.000  C
  C3       1.0000 0.38991  0.66692  0.25000  Biso   1.000  C
  C4       1.0000 0.66692  0.27701  0.25000  Biso   1.000  C
  C5       1.0000 0.72299  0.38991  0.25000  Biso   1.000  C
  C6       1.0000 0.61009  0.33308  0.25000  Biso   1.000  C
  C7       1.0000 0.72299  0.33308  0.25000  Biso   1.000  C
  C8       1.0000 0.61009  0.27701  0.25000  Biso   1.000  C
  C9       1.0000 0.66692  0.38991  0.25000  Biso   1.000  C
  C10      1.0000 0.27701  0.66692  0.25000  Biso   1.000  C
  C11      1.0000 0.38991  0.72299  0.25000  Biso   1.000  C
  C12      1.0000 0.33308  0.61009  0.25000  Biso   1.000  C
  C13      1.0000 0.44587  0.66665  0.25000  Biso   1.000  C
  C14      1.0000 0.33335  0.77922  0.25000  Biso   1.000  C
  C15      1.0000 0.22078  0.55413  0.25000  Biso   1.000  C
  C16      1.0000 0.55413  0.33335  0.25000  Biso   1.000  C
  C17      1.0000 0.66665  0.22078  0.25000  Biso   1.000  C
  C18      1.0000 0.77922  0.44587  0.25000  Biso   1.000  C
  C19      1.0000 0.66665  0.44587  0.25000  Biso   1.000  C
  C20      1.0000 0.77922  0.33335  0.25000  Biso   1.000  C
  C21      1.0000 0.55413  0.22078  0.25000  Biso   1.000  C
  C22      1.0000 0.33335  0.55413  0.25000  Biso   1.000  C
  C23      1.0000 0.22078  0.66665  0.25000  Biso   1.000  C
  C24      1.0000 0.44587  0.77922  0.25000  Biso   1.000  C
  C25      1.0000 0.44574  0.61103  0.25000  Biso   1.000  C
  C26      1.0000 0.38897  0.83471  0.25000  Biso   1.000  C
  C27      1.0000 0.16529  0.55426  0.25000  Biso   1.000  C
  C28      1.0000 0.55426  0.38897  0.25000  Biso   1.000  C
  C29      1.0000 0.61103  0.16529  0.25000  Biso   1.000  C
  C30      1.0000 0.83471  0.44574  0.25000  Biso   1.000  C
  C31      1.0000 0.61103  0.44574  0.25000  Biso   1.000  C
  C32      1.0000 0.83471  0.38897  0.25000  Biso   1.000  C
  C33      1.0000 0.55426  0.16529  0.25000  Biso   1.000  C
  C34      1.0000 0.38897  0.55426  0.25000  Biso   1.000  C
  C35      1.0000 0.16529  0.61103  0.25000  Biso   1.000  C
  C36      1.0000 0.44574  0.83471  0.25000  Biso   1.000  C
  O1       1.0000 0.38625  0.49706  0.25000  Biso   1.000  O
  O2       1.0000 0.50294  0.88919  0.25000  Biso   1.000  O
  O3       1.0000 0.11081  0.61375  0.25000  Biso   1.000  O
  O4       1.0000 0.61375  0.50294  0.25000  Biso   1.000  O
  O5       1.0000 0.49706  0.11081  0.25000  Biso   1.000  O
  O6       1.0000 0.88919  0.38625  0.25000  Biso   1.000  O
  O7       1.0000 0.49706  0.38625  0.25000  Biso   1.000  O
  O8       1.0000 0.88919  0.50294  0.25000  Biso   1.000  O
  O9       1.0000 0.61375  0.11081  0.25000  Biso   1.000  O
  O10      1.0000 0.50294  0.61375  0.25000  Biso   1.000  O
  O11      1.0000 0.11081  0.49706  0.25000  Biso   1.000  O
  O12      1.0000 0.38625  0.88919  0.25000  Biso   1.000  O
  C37      1.0000 0.44352  0.49935  0.25000  Biso   1.000  C
  C38      1.0000 0.50065  0.94417  0.25000  Biso   1.000  C
  C39      1.0000 0.05583  0.55648  0.25000  Biso   1.000  C
  C40      1.0000 0.55648  0.50065  0.25000  Biso   1.000  C
  C41      1.0000 0.49935  0.05583  0.25000  Biso   1.000  C
  C42      1.0000 0.94417  0.44352  0.25000  Biso   1.000  C
  C43      1.0000 0.49935  0.44352  0.25000  Biso   1.000  C
  C44      1.0000 0.94417  0.50065  0.25000  Biso   1.000  C
  C45      1.0000 0.55648  0.05583  0.25000  Biso   1.000  C
  C46      1.0000 0.50065  0.55648  0.25000  Biso   1.000  C
  C47      1.0000 0.05583  0.49935  0.25000  Biso   1.000  C
  C48      1.0000 0.44352  0.94417  0.25000  Biso   1.000  C
  H1       1.0000 0.49195  0.71262  0.25000  Biso   1.000  H
  H2       1.0000 0.28738  0.77933  0.25000  Biso   1.000  H
  H3       1.0000 0.22067  0.50805  0.25000  Biso   1.000  H
  H4       1.0000 0.50805  0.28738  0.25000  Biso   1.000  H
  H5       1.0000 0.71262  0.22067  0.25000  Biso   1.000  H
  H6       1.0000 0.77933  0.49195  0.25000  Biso   1.000  H
  H7       1.0000 0.71262  0.49195  0.25000  Biso   1.000  H
  H8       1.0000 0.77933  0.28738  0.25000  Biso   1.000  H
  H9       1.0000 0.50805  0.22067  0.25000  Biso   1.000  H
  H10      1.0000 0.28738  0.50805  0.25000  Biso   1.000  H
  H11      1.0000 0.22067  0.71262  0.25000  Biso   1.000  H
  H12      1.0000 0.49195  0.77933  0.25000  Biso   1.000  H
  C49      1.0000 0.55675  0.55675  0.25000  Biso   1.000  C
  C50      1.0000 0.44325  0.00000  0.25000  Biso   1.000  C
  C51      1.0000 0.00000  0.44325  0.25000  Biso   1.000  C
  C52      1.0000 0.44325  0.44325  0.25000  Biso   1.000  C
  C53      1.0000 0.55675  0.00000  0.25000  Biso   1.000  C
  C54      1.0000 0.00000  0.55675  0.25000  Biso   1.000  C
  C55      1.0000 0.61507  0.61507  0.25000  Biso   1.000  C
  C56      1.0000 0.38493  0.00000  0.25000  Biso   1.000  C
  C57      1.0000 0.00000  0.38493  0.25000  Biso   1.000  C
  C58      1.0000 0.38493  0.38493  0.25000  Biso   1.000  C
  C59      1.0000 0.61507  0.00000  0.25000  Biso   1.000  C
  C60      1.0000 0.00000  0.61507  0.25000  Biso   1.000  C
  N1       1.0000 0.33822  0.33822  0.25000  Biso   1.000  N
  N2       1.0000 0.66178  0.00000  0.25000  Biso   1.000  N
  N3       1.0000 0.00000  0.66178  0.25000  Biso   1.000  N
  N4       1.0000 0.66178  0.66178  0.25000  Biso   1.000  N
  N5       1.0000 0.33822  0.00000  0.25000  Biso   1.000  N
  N6       1.0000 0.00000  0.33822  0.25000  Biso   1.000  N
  C61      1.0000 0.33308  0.72299  0.75000  Biso   1.000  C
  C62      1.0000 0.27701  0.61009  0.75000  Biso   1.000  C
  C63      1.0000 0.38991  0.66692  0.75000  Biso   1.000  C
  C64      1.0000 0.66692  0.27701  0.75000  Biso   1.000  C
  C65      1.0000 0.72299  0.38991  0.75000  Biso   1.000  C
  C66      1.0000 0.61009  0.33308  0.75000  Biso   1.000  C
  C67      1.0000 0.72299  0.33308  0.75000  Biso   1.000  C
  C68      1.0000 0.61009  0.27701  0.75000  Biso   1.000  C
  C69      1.0000 0.66692  0.38991  0.75000  Biso   1.000  C
  C70      1.0000 0.27701  0.66692  0.75000  Biso   1.000  C
  C71      1.0000 0.38991  0.72299  0.75000  Biso   1.000  C
  C72      1.0000 0.33308  0.61009  0.75000  Biso   1.000  C
  C73      1.0000 0.44587  0.66665  0.75000  Biso   1.000  C
  C74      1.0000 0.33335  0.77922  0.75000  Biso   1.000  C
  C75      1.0000 0.22078  0.55413  0.75000  Biso   1.000  C
  C76      1.0000 0.55413  0.33335  0.75000  Biso   1.000  C
  C77      1.0000 0.66665  0.22078  0.75000  Biso   1.000  C
  C78      1.0000 0.77922  0.44587  0.75000  Biso   1.000  C
  C79      1.0000 0.66665  0.44587  0.75000  Biso   1.000  C
  C80      1.0000 0.77922  0.33335  0.75000  Biso   1.000  C
  C81      1.0000 0.55413  0.22078  0.75000  Biso   1.000  C
  C82      1.0000 0.33335  0.55413  0.75000  Biso   1.000  C
  C83      1.0000 0.22078  0.66665  0.75000  Biso   1.000  C
  C84      1.0000 0.44587  0.77922  0.75000  Biso   1.000  C
  C85      1.0000 0.44574  0.61103  0.75000  Biso   1.000  C
  C86      1.0000 0.38897  0.83471  0.75000  Biso   1.000  C
  C87      1.0000 0.16529  0.55426  0.75000  Biso   1.000  C
  C88      1.0000 0.55426  0.38897  0.75000  Biso   1.000  C
  C89      1.0000 0.61103  0.16529  0.75000  Biso   1.000  C
  C90      1.0000 0.83471  0.44574  0.75000  Biso   1.000  C
  C91      1.0000 0.61103  0.44574  0.75000  Biso   1.000  C
  C92      1.0000 0.83471  0.38897  0.75000  Biso   1.000  C
  C93      1.0000 0.55426  0.16529  0.75000  Biso   1.000  C
  C94      1.0000 0.38897  0.55426  0.75000  Biso   1.000  C
  C95      1.0000 0.16529  0.61103  0.75000  Biso   1.000  C
  C96      1.0000 0.44574  0.83471  0.75000  Biso   1.000  C
  O13      1.0000 0.38625  0.49706  0.75000  Biso   1.000  O
  O14      1.0000 0.50294  0.88919  0.75000  Biso   1.000  O
  O15      1.0000 0.11081  0.61375  0.75000  Biso   1.000  O
  O16      1.0000 0.61375  0.50294  0.75000  Biso   1.000  O
  O17      1.0000 0.49706  0.11081  0.75000  Biso   1.000  O
  O18      1.0000 0.88919  0.38625  0.75000  Biso   1.000  O
  O19      1.0000 0.49706  0.38625  0.75000  Biso   1.000  O
  O20      1.0000 0.88919  0.50294  0.75000  Biso   1.000  O
  O21      1.0000 0.61375  0.11081  0.75000  Biso   1.000  O
  O22      1.0000 0.50294  0.61375  0.75000  Biso   1.000  O
  O23      1.0000 0.11081  0.49706  0.75000  Biso   1.000  O
  O24      1.0000 0.38625  0.88919  0.75000  Biso   1.000  O
  C97      1.0000 0.44352  0.49935  0.75000  Biso   1.000  C
  C98      1.0000 0.50065  0.94417  0.75000  Biso   1.000  C
  C99      1.0000 0.05583  0.55648  0.75000  Biso   1.000  C
  C100     1.0000 0.55648  0.50065  0.75000  Biso   1.000  C
  C101     1.0000 0.49935  0.05583  0.75000  Biso   1.000  C
  C102     1.0000 0.94417  0.44352  0.75000  Biso   1.000  C
  C103     1.0000 0.49935  0.44352  0.75000  Biso   1.000  C
  C104     1.0000 0.94417  0.50065  0.75000  Biso   1.000  C
  C105     1.0000 0.55648  0.05583  0.75000  Biso   1.000  C
  C106     1.0000 0.50065  0.55648  0.75000  Biso   1.000  C
  C107     1.0000 0.05583  0.49935  0.75000  Biso   1.000  C
  C108     1.0000 0.44352  0.94417  0.75000  Biso   1.000  C
  H13      1.0000 0.49195  0.71262  0.75000  Biso   1.000  H
  H14      1.0000 0.28738  0.77933  0.75000  Biso   1.000  H
  H15      1.0000 0.22067  0.50805  0.75000  Biso   1.000  H
  H16      1.0000 0.50805  0.28738  0.75000  Biso   1.000  H
  H17      1.0000 0.71262  0.22067  0.75000  Biso   1.000  H
  H18      1.0000 0.77933  0.49195  0.75000  Biso   1.000  H
  H19      1.0000 0.71262  0.49195  0.75000  Biso   1.000  H
  H20      1.0000 0.77933  0.28738  0.75000  Biso   1.000  H
  H21      1.0000 0.50805  0.22067  0.75000  Biso   1.000  H
  H22      1.0000 0.28738  0.50805  0.75000  Biso   1.000  H
  H23      1.0000 0.22067  0.71262  0.75000  Biso   1.000  H
  H24      1.0000 0.49195  0.77933  0.75000  Biso   1.000  H
  C109     1.0000 0.55675  0.55675  0.75000  Biso   1.000  C
  C110     1.0000 0.44325  0.00000  0.75000  Biso   1.000  C
  C111     1.0000 0.00000  0.44325  0.75000  Biso   1.000  C
  C112     1.0000 0.44325  0.44325  0.75000  Biso   1.000  C
  C113     1.0000 0.55675  0.00000  0.75000  Biso   1.000  C
  C114     1.0000 0.00000  0.55675  0.75000  Biso   1.000  C
  C115     1.0000 0.61507  0.61507  0.75000  Biso   1.000  C
  C116     1.0000 0.38493  0.00000  0.75000  Biso   1.000  C
  C117     1.0000 0.00000  0.38493  0.75000  Biso   1.000  C
  C118     1.0000 0.38493  0.38493  0.75000  Biso   1.000  C
  C119     1.0000 0.61507  0.00000  0.75000  Biso   1.000  C
  C120     1.0000 0.00000  0.61507  0.75000  Biso   1.000  C
  N7       1.0000 0.33822  0.33822  0.75000  Biso   1.000  N
  N8       1.0000 0.66178  0.00000  0.75000  Biso   1.000  N
  N9       1.0000 0.00000  0.66178  0.75000  Biso   1.000  N
  N10      1.0000 0.66178  0.66178  0.75000  Biso   1.000  N
  N11      1.0000 0.33822  0.00000  0.75000  Biso   1.000  N
  N12      1.0000 0.00000  0.33822  0.75000  Biso   1.000  N
