data_image0
_cell_length_a       33.9363
_cell_length_b       33.9363
_cell_length_c       7.1408
_cell_angle_alpha    90
_cell_angle_beta     90
_cell_angle_gamma    120

_symmetry_space_group_name_H-M    "P 1"
_symmetry_int_tables_number       1

loop_
  _symmetry_equiv_pos_as_xyz
  'x, y, z'

loop_
  _atom_site_label
  _atom_site_occupancy
  _atom_site_fract_x
  _atom_site_fract_y
  _atom_site_fract_z
  _atom_site_thermal_displace_type
  _atom_site_B_iso_or_equiv
  _atom_site_type_symbol
  C1       1.0000 0.33325  0.70854  0.25000  Biso   1.000  C
  C2       1.0000 0.29146  0.62471  0.25000  Biso   1.000  C
  C3       1.0000 0.37529  0.66675  0.25000  Biso   1.000  C
  C4       1.0000 0.66675  0.29146  0.25000  Biso   1.000  C
  C5       1.0000 0.70854  0.37529  0.25000  Biso   1.000  C
  C6       1.0000 0.62471  0.33325  0.25000  Biso   1.000  C
  C7       1.0000 0.70854  0.33325  0.25000  Biso   1.000  C
  C8       1.0000 0.62471  0.29146  0.25000  Biso   1.000  C
  C9       1.0000 0.66675  0.37529  0.25000  Biso   1.000  C
  C10      1.0000 0.29146  0.66675  0.25000  Biso   1.000  C
  C11      1.0000 0.37529  0.70854  0.25000  Biso   1.000  C
  C12      1.0000 0.33325  0.62471  0.25000  Biso   1.000  C
  C13      1.0000 0.41685  0.66657  0.25000  Biso   1.000  C
  C14      1.0000 0.33343  0.75028  0.25000  Biso   1.000  C
  C15      1.0000 0.24972  0.58315  0.25000  Biso   1.000  C
  C16      1.0000 0.58315  0.33343  0.25000  Biso   1.000  C
  C17      1.0000 0.66657  0.24972  0.25000  Biso   1.000  C
  C18      1.0000 0.75028  0.41685  0.25000  Biso   1.000  C
  C19      1.0000 0.66657  0.41685  0.25000  Biso   1.000  C
  C20      1.0000 0.75028  0.33343  0.25000  Biso   1.000  C
  C21      1.0000 0.58315  0.24972  0.25000  Biso   1.000  C
  C22      1.0000 0.33343  0.58315  0.25000  Biso   1.000  C
  C23      1.0000 0.24972  0.66657  0.25000  Biso   1.000  C
  C24      1.0000 0.41685  0.75028  0.25000  Biso   1.000  C
  C25      1.0000 0.41795  0.62594  0.25000  Biso   1.000  C
  C26      1.0000 0.37406  0.79201  0.25000  Biso   1.000  C
  C27      1.0000 0.20799  0.58205  0.25000  Biso   1.000  C
  C28      1.0000 0.58205  0.37406  0.25000  Biso   1.000  C
  C29      1.0000 0.62594  0.20799  0.25000  Biso   1.000  C
  C30      1.0000 0.79201  0.41795  0.25000  Biso   1.000  C
  C31      1.0000 0.62594  0.41795  0.25000  Biso   1.000  C
  C32      1.0000 0.79201  0.37406  0.25000  Biso   1.000  C
  C33      1.0000 0.58205  0.20799  0.25000  Biso   1.000  C
  C34      1.0000 0.37406  0.58205  0.25000  Biso   1.000  C
  C35      1.0000 0.20799  0.62594  0.25000  Biso   1.000  C
  C36      1.0000 0.41795  0.79201  0.25000  Biso   1.000  C
  O1       1.0000 0.37219  0.53969  0.25000  Biso   1.000  O
  O2       1.0000 0.46031  0.83250  0.25000  Biso   1.000  O
  O3       1.0000 0.16750  0.62781  0.25000  Biso   1.000  O
  O4       1.0000 0.62781  0.46031  0.25000  Biso   1.000  O
  O5       1.0000 0.53969  0.16750  0.25000  Biso   1.000  O
  O6       1.0000 0.83250  0.37219  0.25000  Biso   1.000  O
  O7       1.0000 0.53969  0.37219  0.25000  Biso   1.000  O
  O8       1.0000 0.83250  0.46031  0.25000  Biso   1.000  O
  O9       1.0000 0.62781  0.16750  0.25000  Biso   1.000  O
  O10      1.0000 0.46031  0.62781  0.25000  Biso   1.000  O
  O11      1.0000 0.16750  0.53969  0.25000  Biso   1.000  O
  O12      1.0000 0.37219  0.83250  0.25000  Biso   1.000  O
  C37      1.0000 0.41453  0.54150  0.25000  Biso   1.000  C
  C38      1.0000 0.45850  0.87303  0.25000  Biso   1.000  C
  C39      1.0000 0.12697  0.58547  0.25000  Biso   1.000  C
  C40      1.0000 0.58547  0.45850  0.25000  Biso   1.000  C
  C41      1.0000 0.54150  0.12697  0.25000  Biso   1.000  C
  C42      1.0000 0.87303  0.41453  0.25000  Biso   1.000  C
  C43      1.0000 0.54150  0.41453  0.25000  Biso   1.000  C
  C44      1.0000 0.87303  0.45850  0.25000  Biso   1.000  C
  C45      1.0000 0.58547  0.12697  0.25000  Biso   1.000  C
  C46      1.0000 0.45850  0.58547  0.25000  Biso   1.000  C
  C47      1.0000 0.12697  0.54150  0.25000  Biso   1.000  C
  C48      1.0000 0.41453  0.87303  0.25000  Biso   1.000  C
  C49      1.0000 0.49921  0.58443  0.25000  Biso   1.000  C
  C50      1.0000 0.41557  0.91478  0.25000  Biso   1.000  C
  C51      1.0000 0.08522  0.50079  0.25000  Biso   1.000  C
  C52      1.0000 0.50079  0.41557  0.25000  Biso   1.000  C
  C53      1.0000 0.58443  0.08522  0.25000  Biso   1.000  C
  C54      1.0000 0.91478  0.49921  0.25000  Biso   1.000  C
  C55      1.0000 0.58443  0.49921  0.25000  Biso   1.000  C
  C56      1.0000 0.91478  0.41557  0.25000  Biso   1.000  C
  C57      1.0000 0.50079  0.08522  0.25000  Biso   1.000  C
  C58      1.0000 0.41557  0.50079  0.25000  Biso   1.000  C
  C59      1.0000 0.08522  0.58443  0.25000  Biso   1.000  C
  C60      1.0000 0.49921  0.91478  0.25000  Biso   1.000  C
  C61      1.0000 0.45719  0.50099  0.25000  Biso   1.000  C
  C62      1.0000 0.49901  0.95620  0.25000  Biso   1.000  C
  C63      1.0000 0.04380  0.54281  0.25000  Biso   1.000  C
  C64      1.0000 0.54281  0.49901  0.25000  Biso   1.000  C
  C65      1.0000 0.50099  0.04380  0.25000  Biso   1.000  C
  C66      1.0000 0.95620  0.45719  0.25000  Biso   1.000  C
  C67      1.0000 0.50099  0.45719  0.25000  Biso   1.000  C
  C68      1.0000 0.95620  0.49901  0.25000  Biso   1.000  C
  C69      1.0000 0.54281  0.04380  0.25000  Biso   1.000  C
  C70      1.0000 0.49901  0.54281  0.25000  Biso   1.000  C
  C71      1.0000 0.04380  0.50099  0.25000  Biso   1.000  C
  C72      1.0000 0.45719  0.95620  0.25000  Biso   1.000  C
  H1       1.0000 0.45018  0.70079  0.25000  Biso   1.000  H
  H2       1.0000 0.29921  0.74939  0.25000  Biso   1.000  H
  H3       1.0000 0.25061  0.54982  0.25000  Biso   1.000  H
  H4       1.0000 0.54982  0.29921  0.25000  Biso   1.000  H
  H5       1.0000 0.70079  0.25061  0.25000  Biso   1.000  H
  H6       1.0000 0.74939  0.45018  0.25000  Biso   1.000  H
  H7       1.0000 0.70079  0.45018  0.25000  Biso   1.000  H
  H8       1.0000 0.74939  0.29921  0.25000  Biso   1.000  H
  H9       1.0000 0.54982  0.25061  0.25000  Biso   1.000  H
  H10      1.0000 0.29921  0.54982  0.25000  Biso   1.000  H
  H11      1.0000 0.25061  0.70079  0.25000  Biso   1.000  H
  H12      1.0000 0.45018  0.74939  0.25000  Biso   1.000  H
  H13      1.0000 0.53341  0.61778  0.25000  Biso   1.000  H
  H14      1.0000 0.38222  0.91563  0.25000  Biso   1.000  H
  H15      1.0000 0.08437  0.46659  0.25000  Biso   1.000  H
  H16      1.0000 0.46659  0.38222  0.25000  Biso   1.000  H
  H17      1.0000 0.61778  0.08437  0.25000  Biso   1.000  H
  H18      1.0000 0.91563  0.53341  0.25000  Biso   1.000  H
  H19      1.0000 0.61778  0.53341  0.25000  Biso   1.000  H
  H20      1.0000 0.91563  0.38222  0.25000  Biso   1.000  H
  H21      1.0000 0.46659  0.08437  0.25000  Biso   1.000  H
  H22      1.0000 0.38222  0.46659  0.25000  Biso   1.000  H
  H23      1.0000 0.08437  0.61778  0.25000  Biso   1.000  H
  H24      1.0000 0.53341  0.91563  0.25000  Biso   1.000  H
  C73      1.0000 0.54281  0.54281  0.25000  Biso   1.000  C
  C74      1.0000 0.45719  0.00000  0.25000  Biso   1.000  C
  C75      1.0000 0.00000  0.45719  0.25000  Biso   1.000  C
  C76      1.0000 0.45719  0.45719  0.25000  Biso   1.000  C
  C77      1.0000 0.54281  0.00000  0.25000  Biso   1.000  C
  C78      1.0000 0.00000  0.54281  0.25000  Biso   1.000  C
  O13      1.0000 0.57898  0.57898  0.25000  Biso   1.000  O
  O14      1.0000 0.42102  0.00000  0.25000  Biso   1.000  O
  O15      1.0000 0.00000  0.42102  0.25000  Biso   1.000  O
  O16      1.0000 0.42102  0.42102  0.25000  Biso   1.000  O
  O17      1.0000 0.57898  0.00000  0.25000  Biso   1.000  O
  O18      1.0000 0.00000  0.57898  0.25000  Biso   1.000  O
  C79      1.0000 0.33325  0.70854  0.75000  Biso   1.000  C
  C80      1.0000 0.29146  0.62471  0.75000  Biso   1.000  C
  C81      1.0000 0.37529  0.66675  0.75000  Biso   1.000  C
  C82      1.0000 0.66675  0.29146  0.75000  Biso   1.000  C
  C83      1.0000 0.70854  0.37529  0.75000  Biso   1.000  C
  C84      1.0000 0.62471  0.33325  0.75000  Biso   1.000  C
  C85      1.0000 0.70854  0.33325  0.75000  Biso   1.000  C
  C86      1.0000 0.62471  0.29146  0.75000  Biso   1.000  C
  C87      1.0000 0.66675  0.37529  0.75000  Biso   1.000  C
  C88      1.0000 0.29146  0.66675  0.75000  Biso   1.000  C
  C89      1.0000 0.37529  0.70854  0.75000  Biso   1.000  C
  C90      1.0000 0.33325  0.62471  0.75000  Biso   1.000  C
  C91      1.0000 0.41685  0.66657  0.75000  Biso   1.000  C
  C92      1.0000 0.33343  0.75028  0.75000  Biso   1.000  C
  C93      1.0000 0.24972  0.58315  0.75000  Biso   1.000  C
  C94      1.0000 0.58315  0.33343  0.75000  Biso   1.000  C
  C95      1.0000 0.66657  0.24972  0.75000  Biso   1.000  C
  C96      1.0000 0.75028  0.41685  0.75000  Biso   1.000  C
  C97      1.0000 0.66657  0.41685  0.75000  Biso   1.000  C
  C98      1.0000 0.75028  0.33343  0.75000  Biso   1.000  C
  C99      1.0000 0.58315  0.24972  0.75000  Biso   1.000  C
  C100     1.0000 0.33343  0.58315  0.75000  Biso   1.000  C
  C101     1.0000 0.24972  0.66657  0.75000  Biso   1.000  C
  C102     1.0000 0.41685  0.75028  0.75000  Biso   1.000  C
  C103     1.0000 0.41795  0.62594  0.75000  Biso   1.000  C
  C104     1.0000 0.37406  0.79201  0.75000  Biso   1.000  C
  C105     1.0000 0.20799  0.58205  0.75000  Biso   1.000  C
  C106     1.0000 0.58205  0.37406  0.75000  Biso   1.000  C
  C107     1.0000 0.62594  0.20799  0.75000  Biso   1.000  C
  C108     1.0000 0.79201  0.41795  0.75000  Biso   1.000  C
  C109     1.0000 0.62594  0.41795  0.75000  Biso   1.000  C
  C110     1.0000 0.79201  0.37406  0.75000  Biso   1.000  C
  C111     1.0000 0.58205  0.20799  0.75000  Biso   1.000  C
  C112     1.0000 0.37406  0.58205  0.75000  Biso   1.000  C
  C113     1.0000 0.20799  0.62594  0.75000  Biso   1.000  C
  C114     1.0000 0.41795  0.79201  0.75000  Biso   1.000  C
  O19      1.0000 0.37219  0.53969  0.75000  Biso   1.000  O
  O20      1.0000 0.46031  0.83250  0.75000  Biso   1.000  O
  O21      1.0000 0.16750  0.62781  0.75000  Biso   1.000  O
  O22      1.0000 0.62781  0.46031  0.75000  Biso   1.000  O
  O23      1.0000 0.53969  0.16750  0.75000  Biso   1.000  O
  O24      1.0000 0.83250  0.37219  0.75000  Biso   1.000  O
  O25      1.0000 0.53969  0.37219  0.75000  Biso   1.000  O
  O26      1.0000 0.83250  0.46031  0.75000  Biso   1.000  O
  O27      1.0000 0.62781  0.16750  0.75000  Biso   1.000  O
  O28      1.0000 0.46031  0.62781  0.75000  Biso   1.000  O
  O29      1.0000 0.16750  0.53969  0.75000  Biso   1.000  O
  O30      1.0000 0.37219  0.83250  0.75000  Biso   1.000  O
  C115     1.0000 0.41453  0.54150  0.75000  Biso   1.000  C
  C116     1.0000 0.45850  0.87303  0.75000  Biso   1.000  C
  C117     1.0000 0.12697  0.58547  0.75000  Biso   1.000  C
  C118     1.0000 0.58547  0.45850  0.75000  Biso   1.000  C
  C119     1.0000 0.54150  0.12697  0.75000  Biso   1.000  C
  C120     1.0000 0.87303  0.41453  0.75000  Biso   1.000  C
  C121     1.0000 0.54150  0.41453  0.75000  Biso   1.000  C
  C122     1.0000 0.87303  0.45850  0.75000  Biso   1.000  C
  C123     1.0000 0.58547  0.12697  0.75000  Biso   1.000  C
  C124     1.0000 0.45850  0.58547  0.75000  Biso   1.000  C
  C125     1.0000 0.12697  0.54150  0.75000  Biso   1.000  C
  C126     1.0000 0.41453  0.87303  0.75000  Biso   1.000  C
  C127     1.0000 0.49921  0.58443  0.75000  Biso   1.000  C
  C128     1.0000 0.41557  0.91478  0.75000  Biso   1.000  C
  C129     1.0000 0.08522  0.50079  0.75000  Biso   1.000  C
  C130     1.0000 0.50079  0.41557  0.75000  Biso   1.000  C
  C131     1.0000 0.58443  0.08522  0.75000  Biso   1.000  C
  C132     1.0000 0.91478  0.49921  0.75000  Biso   1.000  C
  C133     1.0000 0.58443  0.49921  0.75000  Biso   1.000  C
  C134     1.0000 0.91478  0.41557  0.75000  Biso   1.000  C
  C135     1.0000 0.50079  0.08522  0.75000  Biso   1.000  C
  C136     1.0000 0.41557  0.50079  0.75000  Biso   1.000  C
  C137     1.0000 0.08522  0.58443  0.75000  Biso   1.000  C
  C138     1.0000 0.49921  0.91478  0.75000  Biso   1.000  C
  C139     1.0000 0.45719  0.50099  0.75000  Biso   1.000  C
  C140     1.0000 0.49901  0.95620  0.75000  Biso   1.000  C
  C141     1.0000 0.04380  0.54281  0.75000  Biso   1.000  C
  C142     1.0000 0.54281  0.49901  0.75000  Biso   1.000  C
  C143     1.0000 0.50099  0.04380  0.75000  Biso   1.000  C
  C144     1.0000 0.95620  0.45719  0.75000  Biso   1.000  C
  C145     1.0000 0.50099  0.45719  0.75000  Biso   1.000  C
  C146     1.0000 0.95620  0.49901  0.75000  Biso   1.000  C
  C147     1.0000 0.54281  0.04380  0.75000  Biso   1.000  C
  C148     1.0000 0.49901  0.54281  0.75000  Biso   1.000  C
  C149     1.0000 0.04380  0.50099  0.75000  Biso   1.000  C
  C150     1.0000 0.45719  0.95620  0.75000  Biso   1.000  C
  H25      1.0000 0.45018  0.70079  0.75000  Biso   1.000  H
  H26      1.0000 0.29921  0.74939  0.75000  Biso   1.000  H
  H27      1.0000 0.25061  0.54982  0.75000  Biso   1.000  H
  H28      1.0000 0.54982  0.29921  0.75000  Biso   1.000  H
  H29      1.0000 0.70079  0.25061  0.75000  Biso   1.000  H
  H30      1.0000 0.74939  0.45018  0.75000  Biso   1.000  H
  H31      1.0000 0.70079  0.45018  0.75000  Biso   1.000  H
  H32      1.0000 0.74939  0.29921  0.75000  Biso   1.000  H
  H33      1.0000 0.54982  0.25061  0.75000  Biso   1.000  H
  H34      1.0000 0.29921  0.54982  0.75000  Biso   1.000  H
  H35      1.0000 0.25061  0.70079  0.75000  Biso   1.000  H
  H36      1.0000 0.45018  0.74939  0.75000  Biso   1.000  H
  H37      1.0000 0.53341  0.61778  0.75000  Biso   1.000  H
  H38      1.0000 0.38222  0.91563  0.75000  Biso   1.000  H
  H39      1.0000 0.08437  0.46659  0.75000  Biso   1.000  H
  H40      1.0000 0.46659  0.38222  0.75000  Biso   1.000  H
  H41      1.0000 0.61778  0.08437  0.75000  Biso   1.000  H
  H42      1.0000 0.91563  0.53341  0.75000  Biso   1.000  H
  H43      1.0000 0.61778  0.53341  0.75000  Biso   1.000  H
  H44      1.0000 0.91563  0.38222  0.75000  Biso   1.000  H
  H45      1.0000 0.46659  0.08437  0.75000  Biso   1.000  H
  H46      1.0000 0.38222  0.46659  0.75000  Biso   1.000  H
  H47      1.0000 0.08437  0.61778  0.75000  Biso   1.000  H
  H48      1.0000 0.53341  0.91563  0.75000  Biso   1.000  H
  C151     1.0000 0.54281  0.54281  0.75000  Biso   1.000  C
  C152     1.0000 0.45719  0.00000  0.75000  Biso   1.000  C
  C153     1.0000 0.00000  0.45719  0.75000  Biso   1.000  C
  C154     1.0000 0.45719  0.45719  0.75000  Biso   1.000  C
  C155     1.0000 0.54281  0.00000  0.75000  Biso   1.000  C
  C156     1.0000 0.00000  0.54281  0.75000  Biso   1.000  C
  O31      1.0000 0.57898  0.57898  0.75000  Biso   1.000  O
  O32      1.0000 0.42102  0.00000  0.75000  Biso   1.000  O
  O33      1.0000 0.00000  0.42102  0.75000  Biso   1.000  O
  O34      1.0000 0.42102  0.42102  0.75000  Biso   1.000  O
  O35      1.0000 0.57898  0.00000  0.75000  Biso   1.000  O
  O36      1.0000 0.00000  0.57898  0.75000  Biso   1.000  O
