data_image0
_cell_length_a       24.6865
_cell_length_b       24.6865
_cell_length_c       7.0004
_cell_angle_alpha    90
_cell_angle_beta     90
_cell_angle_gamma    120

_symmetry_space_group_name_H-M    "P 1"
_symmetry_int_tables_number       1

loop_
  _symmetry_equiv_pos_as_xyz
  'x, y, z'

loop_
  _atom_site_label
  _atom_site_occupancy
  _atom_site_fract_x
  _atom_site_fract_y
  _atom_site_fract_z
  _atom_site_thermal_displace_type
  _atom_site_B_iso_or_equiv
  _atom_site_type_symbol
  H1       1.0000 0.68031  0.60425  0.13825  Biso   1.000  H
  H2       1.0000 0.39575  0.07606  0.13825  Biso   1.000  H
  H3       1.0000 0.92394  0.31969  0.13825  Biso   1.000  H
  H4       1.0000 0.31969  0.39575  0.13825  Biso   1.000  H
  H5       1.0000 0.60425  0.92394  0.13825  Biso   1.000  H
  H6       1.0000 0.07606  0.68031  0.13825  Biso   1.000  H
  H7       1.0000 0.31969  0.39575  0.36175  Biso   1.000  H
  H8       1.0000 0.60425  0.92394  0.36175  Biso   1.000  H
  H9       1.0000 0.07606  0.68031  0.36175  Biso   1.000  H
  H10      1.0000 0.68031  0.60425  0.36175  Biso   1.000  H
  H11      1.0000 0.39575  0.07606  0.36175  Biso   1.000  H
  H12      1.0000 0.92394  0.31969  0.36175  Biso   1.000  H
  C1       1.0000 0.33310  0.72297  0.25000  Biso   1.000  C
  C2       1.0000 0.27703  0.61013  0.25000  Biso   1.000  C
  C3       1.0000 0.38987  0.66690  0.25000  Biso   1.000  C
  C4       1.0000 0.66690  0.27703  0.25000  Biso   1.000  C
  C5       1.0000 0.72297  0.38987  0.25000  Biso   1.000  C
  C6       1.0000 0.61013  0.33310  0.25000  Biso   1.000  C
  C7       1.0000 0.44579  0.66661  0.25000  Biso   1.000  C
  C8       1.0000 0.33339  0.77918  0.25000  Biso   1.000  C
  C9       1.0000 0.22082  0.55421  0.25000  Biso   1.000  C
  C10      1.0000 0.55421  0.33339  0.25000  Biso   1.000  C
  C11      1.0000 0.66661  0.22082  0.25000  Biso   1.000  C
  C12      1.0000 0.77918  0.44579  0.25000  Biso   1.000  C
  C13      1.0000 0.44546  0.61093  0.25000  Biso   1.000  C
  C14      1.0000 0.38907  0.83453  0.25000  Biso   1.000  C
  C15      1.0000 0.16547  0.55454  0.25000  Biso   1.000  C
  C16      1.0000 0.55454  0.38907  0.25000  Biso   1.000  C
  C17      1.0000 0.61093  0.16547  0.25000  Biso   1.000  C
  C18      1.0000 0.83453  0.44546  0.25000  Biso   1.000  C
  O1       1.0000 0.38643  0.49751  0.25000  Biso   1.000  O
  O2       1.0000 0.50249  0.88892  0.25000  Biso   1.000  O
  O3       1.0000 0.11108  0.61357  0.25000  Biso   1.000  O
  O4       1.0000 0.61357  0.50249  0.25000  Biso   1.000  O
  O5       1.0000 0.49751  0.11108  0.25000  Biso   1.000  O
  O6       1.0000 0.88892  0.38643  0.25000  Biso   1.000  O
  C19      1.0000 0.44304  0.49871  0.25000  Biso   1.000  C
  C20      1.0000 0.50129  0.94433  0.25000  Biso   1.000  C
  C21      1.0000 0.05567  0.55696  0.25000  Biso   1.000  C
  C22      1.0000 0.55696  0.50129  0.25000  Biso   1.000  C
  C23      1.0000 0.49871  0.05567  0.25000  Biso   1.000  C
  C24      1.0000 0.94433  0.44304  0.25000  Biso   1.000  C
  C25      1.0000 0.72293  0.33304  0.25000  Biso   1.000  C
  C26      1.0000 0.66696  0.38989  0.25000  Biso   1.000  C
  C27      1.0000 0.61011  0.27707  0.25000  Biso   1.000  C
  C28      1.0000 0.27707  0.66696  0.25000  Biso   1.000  C
  C29      1.0000 0.33304  0.61011  0.25000  Biso   1.000  C
  C30      1.0000 0.38989  0.72293  0.25000  Biso   1.000  C
  C31      1.0000 0.66673  0.44584  0.25000  Biso   1.000  C
  C32      1.0000 0.55416  0.22089  0.25000  Biso   1.000  C
  C33      1.0000 0.77911  0.33327  0.25000  Biso   1.000  C
  C34      1.0000 0.33327  0.55416  0.25000  Biso   1.000  C
  C35      1.0000 0.44584  0.77911  0.25000  Biso   1.000  C
  C36      1.0000 0.22089  0.66673  0.25000  Biso   1.000  C
  C37      1.0000 0.61108  0.44557  0.25000  Biso   1.000  C
  C38      1.0000 0.55443  0.16551  0.25000  Biso   1.000  C
  C39      1.0000 0.83449  0.38892  0.25000  Biso   1.000  C
  C40      1.0000 0.38892  0.55443  0.25000  Biso   1.000  C
  C41      1.0000 0.44557  0.83449  0.25000  Biso   1.000  C
  C42      1.0000 0.16551  0.61108  0.25000  Biso   1.000  C
  O7       1.0000 0.49771  0.38673  0.25000  Biso   1.000  O
  O8       1.0000 0.61327  0.11098  0.25000  Biso   1.000  O
  O9       1.0000 0.88902  0.50229  0.25000  Biso   1.000  O
  O10      1.0000 0.50229  0.61327  0.25000  Biso   1.000  O
  O11      1.0000 0.38673  0.88902  0.25000  Biso   1.000  O
  O12      1.0000 0.11098  0.49771  0.25000  Biso   1.000  O
  C43      1.0000 0.49972  0.44395  0.25000  Biso   1.000  C
  C44      1.0000 0.55605  0.05577  0.25000  Biso   1.000  C
  C45      1.0000 0.94423  0.50028  0.25000  Biso   1.000  C
  C46      1.0000 0.50028  0.55605  0.25000  Biso   1.000  C
  C47      1.0000 0.44395  0.94423  0.25000  Biso   1.000  C
  C48      1.0000 0.05577  0.49972  0.25000  Biso   1.000  C
  N1       1.0000 0.67653  0.62888  0.25000  Biso   1.000  N
  N2       1.0000 0.37112  0.04765  0.25000  Biso   1.000  N
  N3       1.0000 0.95235  0.32347  0.25000  Biso   1.000  N
  N4       1.0000 0.32347  0.37112  0.25000  Biso   1.000  N
  N5       1.0000 0.62888  0.95235  0.25000  Biso   1.000  N
  N6       1.0000 0.04765  0.67653  0.25000  Biso   1.000  N
  C49      1.0000 0.55724  0.55788  0.25000  Biso   1.000  C
  C50      1.0000 0.44212  0.99936  0.25000  Biso   1.000  C
  C51      1.0000 0.00064  0.44276  0.25000  Biso   1.000  C
  C52      1.0000 0.44276  0.44212  0.25000  Biso   1.000  C
  C53      1.0000 0.55788  0.00064  0.25000  Biso   1.000  C
  C54      1.0000 0.99936  0.55724  0.25000  Biso   1.000  C
  C55      1.0000 0.61492  0.62311  0.25000  Biso   1.000  C
  C56      1.0000 0.37689  0.99181  0.25000  Biso   1.000  C
  C57      1.0000 0.00819  0.38508  0.25000  Biso   1.000  C
  C58      1.0000 0.38508  0.37689  0.25000  Biso   1.000  C
  C59      1.0000 0.62311  0.00819  0.25000  Biso   1.000  C
  C60      1.0000 0.99181  0.61492  0.25000  Biso   1.000  C
  H13      1.0000 0.49195  0.71249  0.25000  Biso   1.000  H
  H14      1.0000 0.28751  0.77946  0.25000  Biso   1.000  H
  H15      1.0000 0.22054  0.50805  0.25000  Biso   1.000  H
  H16      1.0000 0.50805  0.28751  0.25000  Biso   1.000  H
  H17      1.0000 0.71249  0.22054  0.25000  Biso   1.000  H
  H18      1.0000 0.77946  0.49195  0.25000  Biso   1.000  H
  H19      1.0000 0.28736  0.50802  0.25000  Biso   1.000  H
  H20      1.0000 0.49198  0.77934  0.25000  Biso   1.000  H
  H21      1.0000 0.22066  0.71264  0.25000  Biso   1.000  H
  H22      1.0000 0.71264  0.49198  0.25000  Biso   1.000  H
  H23      1.0000 0.50802  0.22066  0.25000  Biso   1.000  H
  H24      1.0000 0.77934  0.28736  0.25000  Biso   1.000  H
  H25      1.0000 0.68031  0.60425  0.63826  Biso   1.000  H
  H26      1.0000 0.39575  0.07606  0.63826  Biso   1.000  H
  H27      1.0000 0.92394  0.31969  0.63826  Biso   1.000  H
  H28      1.0000 0.31969  0.39575  0.63826  Biso   1.000  H
  H29      1.0000 0.60425  0.92394  0.63826  Biso   1.000  H
  H30      1.0000 0.07606  0.68031  0.63826  Biso   1.000  H
  H31      1.0000 0.31969  0.39575  0.86175  Biso   1.000  H
  H32      1.0000 0.60425  0.92394  0.86175  Biso   1.000  H
  H33      1.0000 0.07606  0.68031  0.86175  Biso   1.000  H
  H34      1.0000 0.68031  0.60425  0.86175  Biso   1.000  H
  H35      1.0000 0.39575  0.07606  0.86175  Biso   1.000  H
  H36      1.0000 0.92394  0.31969  0.86175  Biso   1.000  H
  C61      1.0000 0.33310  0.72297  0.75000  Biso   1.000  C
  C62      1.0000 0.27703  0.61013  0.75000  Biso   1.000  C
  C63      1.0000 0.38987  0.66690  0.75000  Biso   1.000  C
  C64      1.0000 0.66690  0.27703  0.75000  Biso   1.000  C
  C65      1.0000 0.72297  0.38987  0.75000  Biso   1.000  C
  C66      1.0000 0.61013  0.33310  0.75000  Biso   1.000  C
  C67      1.0000 0.44579  0.66661  0.75000  Biso   1.000  C
  C68      1.0000 0.33339  0.77918  0.75000  Biso   1.000  C
  C69      1.0000 0.22082  0.55421  0.75000  Biso   1.000  C
  C70      1.0000 0.55421  0.33339  0.75000  Biso   1.000  C
  C71      1.0000 0.66661  0.22082  0.75000  Biso   1.000  C
  C72      1.0000 0.77918  0.44579  0.75000  Biso   1.000  C
  C73      1.0000 0.44546  0.61093  0.75000  Biso   1.000  C
  C74      1.0000 0.38907  0.83453  0.75000  Biso   1.000  C
  C75      1.0000 0.16547  0.55454  0.75000  Biso   1.000  C
  C76      1.0000 0.55454  0.38907  0.75000  Biso   1.000  C
  C77      1.0000 0.61093  0.16547  0.75000  Biso   1.000  C
  C78      1.0000 0.83453  0.44546  0.75000  Biso   1.000  C
  O13      1.0000 0.38643  0.49751  0.75000  Biso   1.000  O
  O14      1.0000 0.50249  0.88892  0.75000  Biso   1.000  O
  O15      1.0000 0.11108  0.61357  0.75000  Biso   1.000  O
  O16      1.0000 0.61357  0.50249  0.75000  Biso   1.000  O
  O17      1.0000 0.49751  0.11108  0.75000  Biso   1.000  O
  O18      1.0000 0.88892  0.38643  0.75000  Biso   1.000  O
  C79      1.0000 0.44304  0.49871  0.75000  Biso   1.000  C
  C80      1.0000 0.50129  0.94433  0.75000  Biso   1.000  C
  C81      1.0000 0.05567  0.55696  0.75000  Biso   1.000  C
  C82      1.0000 0.55696  0.50129  0.75000  Biso   1.000  C
  C83      1.0000 0.49871  0.05567  0.75000  Biso   1.000  C
  C84      1.0000 0.94433  0.44304  0.75000  Biso   1.000  C
  C85      1.0000 0.72293  0.33304  0.75000  Biso   1.000  C
  C86      1.0000 0.66696  0.38989  0.75000  Biso   1.000  C
  C87      1.0000 0.61011  0.27707  0.75000  Biso   1.000  C
  C88      1.0000 0.27707  0.66696  0.75000  Biso   1.000  C
  C89      1.0000 0.33304  0.61011  0.75000  Biso   1.000  C
  C90      1.0000 0.38989  0.72293  0.75000  Biso   1.000  C
  C91      1.0000 0.66673  0.44584  0.75000  Biso   1.000  C
  C92      1.0000 0.55416  0.22089  0.75000  Biso   1.000  C
  C93      1.0000 0.77911  0.33327  0.75000  Biso   1.000  C
  C94      1.0000 0.33327  0.55416  0.75000  Biso   1.000  C
  C95      1.0000 0.44584  0.77911  0.75000  Biso   1.000  C
  C96      1.0000 0.22089  0.66673  0.75000  Biso   1.000  C
  C97      1.0000 0.61108  0.44557  0.75000  Biso   1.000  C
  C98      1.0000 0.55443  0.16551  0.75000  Biso   1.000  C
  C99      1.0000 0.83449  0.38892  0.75000  Biso   1.000  C
  C100     1.0000 0.38892  0.55443  0.75000  Biso   1.000  C
  C101     1.0000 0.44557  0.83449  0.75000  Biso   1.000  C
  C102     1.0000 0.16551  0.61108  0.75000  Biso   1.000  C
  O19      1.0000 0.49771  0.38673  0.75000  Biso   1.000  O
  O20      1.0000 0.61327  0.11098  0.75000  Biso   1.000  O
  O21      1.0000 0.88902  0.50229  0.75000  Biso   1.000  O
  O22      1.0000 0.50229  0.61327  0.75000  Biso   1.000  O
  O23      1.0000 0.38673  0.88902  0.75000  Biso   1.000  O
  O24      1.0000 0.11098  0.49771  0.75000  Biso   1.000  O
  C103     1.0000 0.49972  0.44395  0.75000  Biso   1.000  C
  C104     1.0000 0.55605  0.05577  0.75000  Biso   1.000  C
  C105     1.0000 0.94423  0.50028  0.75000  Biso   1.000  C
  C106     1.0000 0.50028  0.55605  0.75000  Biso   1.000  C
  C107     1.0000 0.44395  0.94423  0.75000  Biso   1.000  C
  C108     1.0000 0.05577  0.49972  0.75000  Biso   1.000  C
  N7       1.0000 0.67653  0.62888  0.75000  Biso   1.000  N
  N8       1.0000 0.37112  0.04765  0.75000  Biso   1.000  N
  N9       1.0000 0.95235  0.32347  0.75000  Biso   1.000  N
  N10      1.0000 0.32347  0.37112  0.75000  Biso   1.000  N
  N11      1.0000 0.62888  0.95235  0.75000  Biso   1.000  N
  N12      1.0000 0.04765  0.67653  0.75000  Biso   1.000  N
  C109     1.0000 0.55724  0.55788  0.75000  Biso   1.000  C
  C110     1.0000 0.44212  0.99936  0.75000  Biso   1.000  C
  C111     1.0000 0.00064  0.44276  0.75000  Biso   1.000  C
  C112     1.0000 0.44276  0.44212  0.75000  Biso   1.000  C
  C113     1.0000 0.55788  0.00064  0.75000  Biso   1.000  C
  C114     1.0000 0.99936  0.55724  0.75000  Biso   1.000  C
  C115     1.0000 0.61492  0.62311  0.75000  Biso   1.000  C
  C116     1.0000 0.37689  0.99181  0.75000  Biso   1.000  C
  C117     1.0000 0.00819  0.38508  0.75000  Biso   1.000  C
  C118     1.0000 0.38508  0.37689  0.75000  Biso   1.000  C
  C119     1.0000 0.62311  0.00819  0.75000  Biso   1.000  C
  C120     1.0000 0.99181  0.61492  0.75000  Biso   1.000  C
  H37      1.0000 0.49195  0.71249  0.75000  Biso   1.000  H
  H38      1.0000 0.28751  0.77946  0.75000  Biso   1.000  H
  H39      1.0000 0.22054  0.50805  0.75000  Biso   1.000  H
  H40      1.0000 0.50805  0.28751  0.75000  Biso   1.000  H
  H41      1.0000 0.71249  0.22054  0.75000  Biso   1.000  H
  H42      1.0000 0.77946  0.49195  0.75000  Biso   1.000  H
  H43      1.0000 0.28736  0.50802  0.75000  Biso   1.000  H
  H44      1.0000 0.49198  0.77934  0.75000  Biso   1.000  H
  H45      1.0000 0.22066  0.71264  0.75000  Biso   1.000  H
  H46      1.0000 0.71264  0.49198  0.75000  Biso   1.000  H
  H47      1.0000 0.50802  0.22066  0.75000  Biso   1.000  H
  H48      1.0000 0.77934  0.28736  0.75000  Biso   1.000  H
