data_image0
_cell_length_a       33.9524
_cell_length_b       33.9524
_cell_length_c       6.5108
_cell_angle_alpha    90
_cell_angle_beta     90
_cell_angle_gamma    120

_symmetry_space_group_name_H-M    "P 1"
_symmetry_int_tables_number       1

loop_
  _symmetry_equiv_pos_as_xyz
  'x, y, z'

loop_
  _atom_site_label
  _atom_site_occupancy
  _atom_site_fract_x
  _atom_site_fract_y
  _atom_site_fract_z
  _atom_site_thermal_displace_type
  _atom_site_B_iso_or_equiv
  _atom_site_type_symbol
  C1       1.0000 0.91540  0.99892  0.25000  Biso   1.000  C
  C2       1.0000 0.00108  0.91648  0.25000  Biso   1.000  C
  C3       1.0000 0.08352  0.08460  0.25000  Biso   1.000  C
  C4       1.0000 0.08460  0.00108  0.75000  Biso   1.000  C
  C5       1.0000 0.99892  0.08352  0.75000  Biso   1.000  C
  C6       1.0000 0.91648  0.91540  0.75000  Biso   1.000  C
  C7       1.0000 0.99892  0.91540  0.75000  Biso   1.000  C
  C8       1.0000 0.91648  0.00108  0.75000  Biso   1.000  C
  C9       1.0000 0.08460  0.08352  0.75000  Biso   1.000  C
  C10      1.0000 0.00108  0.08460  0.25000  Biso   1.000  C
  C11      1.0000 0.08352  0.99892  0.25000  Biso   1.000  C
  C12      1.0000 0.91540  0.91648  0.25000  Biso   1.000  C
  C13      1.0000 0.87414  0.95865  0.25000  Biso   1.000  C
  C14      1.0000 0.04135  0.91549  0.25000  Biso   1.000  C
  C15      1.0000 0.08451  0.12586  0.25000  Biso   1.000  C
  C16      1.0000 0.12586  0.04135  0.75000  Biso   1.000  C
  C17      1.0000 0.95865  0.08451  0.75000  Biso   1.000  C
  C18      1.0000 0.91549  0.87414  0.75000  Biso   1.000  C
  C19      1.0000 0.95865  0.87414  0.75000  Biso   1.000  C
  C20      1.0000 0.91549  0.04135  0.75000  Biso   1.000  C
  C21      1.0000 0.12586  0.08451  0.75000  Biso   1.000  C
  C22      1.0000 0.04135  0.12586  0.25000  Biso   1.000  C
  C23      1.0000 0.08451  0.95865  0.25000  Biso   1.000  C
  C24      1.0000 0.87414  0.91549  0.25000  Biso   1.000  C
  O1       1.0000 0.83382  0.87335  0.25000  Biso   1.000  O
  O2       1.0000 0.12665  0.96047  0.25000  Biso   1.000  O
  O3       1.0000 0.03953  0.16618  0.25000  Biso   1.000  O
  O4       1.0000 0.16618  0.12665  0.75000  Biso   1.000  O
  O5       1.0000 0.87335  0.03953  0.75000  Biso   1.000  O
  O6       1.0000 0.96047  0.83382  0.75000  Biso   1.000  O
  O7       1.0000 0.87335  0.83382  0.75000  Biso   1.000  O
  O8       1.0000 0.96047  0.12665  0.75000  Biso   1.000  O
  O9       1.0000 0.16618  0.03953  0.75000  Biso   1.000  O
  O10      1.0000 0.12665  0.16618  0.25000  Biso   1.000  O
  O11      1.0000 0.03953  0.87335  0.25000  Biso   1.000  O
  O12      1.0000 0.83382  0.96047  0.25000  Biso   1.000  O
  C25      1.0000 0.79341  0.87491  0.25000  Biso   1.000  C
  C26      1.0000 0.12509  0.91850  0.25000  Biso   1.000  C
  C27      1.0000 0.08150  0.20659  0.25000  Biso   1.000  C
  C28      1.0000 0.20659  0.12509  0.75000  Biso   1.000  C
  C29      1.0000 0.87491  0.08150  0.75000  Biso   1.000  C
  C30      1.0000 0.91850  0.79341  0.75000  Biso   1.000  C
  C31      1.0000 0.87491  0.79341  0.75000  Biso   1.000  C
  C32      1.0000 0.91850  0.12509  0.75000  Biso   1.000  C
  C33      1.0000 0.20659  0.08150  0.75000  Biso   1.000  C
  C34      1.0000 0.12509  0.20659  0.25000  Biso   1.000  C
  C35      1.0000 0.08150  0.87491  0.25000  Biso   1.000  C
  C36      1.0000 0.79341  0.91850  0.25000  Biso   1.000  C
  C37      1.0000 0.75196  0.91761  0.25000  Biso   1.000  C
  C38      1.0000 0.08239  0.83435  0.25000  Biso   1.000  C
  C39      1.0000 0.16565  0.24804  0.25000  Biso   1.000  C
  C40      1.0000 0.24804  0.08239  0.75000  Biso   1.000  C
  C41      1.0000 0.91761  0.16565  0.75000  Biso   1.000  C
  C42      1.0000 0.83435  0.75196  0.75000  Biso   1.000  C
  C43      1.0000 0.91761  0.75196  0.75000  Biso   1.000  C
  C44      1.0000 0.83435  0.08239  0.75000  Biso   1.000  C
  C45      1.0000 0.24804  0.16565  0.75000  Biso   1.000  C
  C46      1.0000 0.08239  0.24804  0.25000  Biso   1.000  C
  C47      1.0000 0.16565  0.91761  0.25000  Biso   1.000  C
  C48      1.0000 0.75196  0.83435  0.25000  Biso   1.000  C
  C49      1.0000 0.71057  0.83447  0.25000  Biso   1.000  C
  C50      1.0000 0.16553  0.87610  0.25000  Biso   1.000  C
  C51      1.0000 0.12390  0.28943  0.25000  Biso   1.000  C
  C52      1.0000 0.28943  0.16553  0.75000  Biso   1.000  C
  C53      1.0000 0.83447  0.12390  0.75000  Biso   1.000  C
  C54      1.0000 0.87610  0.71057  0.75000  Biso   1.000  C
  C55      1.0000 0.83447  0.71057  0.75000  Biso   1.000  C
  C56      1.0000 0.87610  0.16553  0.75000  Biso   1.000  C
  C57      1.0000 0.28943  0.12390  0.75000  Biso   1.000  C
  C58      1.0000 0.16553  0.28943  0.25000  Biso   1.000  C
  C59      1.0000 0.12390  0.83447  0.25000  Biso   1.000  C
  C60      1.0000 0.71057  0.87610  0.25000  Biso   1.000  C
  C61      1.0000 0.95788  0.00001  0.25000  Biso   1.000  C
  C62      1.0000 0.99999  0.95787  0.25000  Biso   1.000  C
  C63      1.0000 0.04213  0.04212  0.25000  Biso   1.000  C
  C64      1.0000 0.04212  0.99999  0.75000  Biso   1.000  C
  C65      1.0000 0.00001  0.04213  0.75000  Biso   1.000  C
  C66      1.0000 0.95787  0.95788  0.75000  Biso   1.000  C
  C67      1.0000 0.00001  0.95788  0.75000  Biso   1.000  C
  C68      1.0000 0.95787  0.99999  0.75000  Biso   1.000  C
  C69      1.0000 0.04212  0.04213  0.75000  Biso   1.000  C
  C70      1.0000 0.99999  0.04212  0.25000  Biso   1.000  C
  C71      1.0000 0.04213  0.00001  0.25000  Biso   1.000  C
  C72      1.0000 0.95788  0.95787  0.25000  Biso   1.000  C
  C73      1.0000 0.29117  0.62451  0.25000  Biso   1.000  C
  C74      1.0000 0.37549  0.66666  0.25000  Biso   1.000  C
  C75      1.0000 0.33334  0.70883  0.25000  Biso   1.000  C
  C76      1.0000 0.70883  0.37549  0.75000  Biso   1.000  C
  C77      1.0000 0.62451  0.33334  0.75000  Biso   1.000  C
  C78      1.0000 0.66666  0.29117  0.75000  Biso   1.000  C
  C79      1.0000 0.62451  0.29117  0.75000  Biso   1.000  C
  C80      1.0000 0.66666  0.37549  0.75000  Biso   1.000  C
  C81      1.0000 0.70883  0.33334  0.75000  Biso   1.000  C
  C82      1.0000 0.37549  0.70883  0.25000  Biso   1.000  C
  C83      1.0000 0.33334  0.62451  0.25000  Biso   1.000  C
  C84      1.0000 0.29117  0.66666  0.25000  Biso   1.000  C
  C85      1.0000 0.41803  0.66778  0.25000  Biso   1.000  C
  C86      1.0000 0.33222  0.75025  0.25000  Biso   1.000  C
  C87      1.0000 0.24975  0.58197  0.25000  Biso   1.000  C
  C88      1.0000 0.58197  0.33222  0.75000  Biso   1.000  C
  C89      1.0000 0.66778  0.24975  0.75000  Biso   1.000  C
  C90      1.0000 0.75025  0.41803  0.75000  Biso   1.000  C
  C91      1.0000 0.66778  0.41803  0.75000  Biso   1.000  C
  C92      1.0000 0.75025  0.33222  0.75000  Biso   1.000  C
  C93      1.0000 0.58197  0.24975  0.75000  Biso   1.000  C
  C94      1.0000 0.33222  0.58197  0.25000  Biso   1.000  C
  C95      1.0000 0.24975  0.66778  0.25000  Biso   1.000  C
  C96      1.0000 0.41803  0.75025  0.25000  Biso   1.000  C
  C97      1.0000 0.45934  0.70809  0.25000  Biso   1.000  C
  C98      1.0000 0.29191  0.75125  0.25000  Biso   1.000  C
  C99      1.0000 0.24875  0.54066  0.25000  Biso   1.000  C
  C100     1.0000 0.54066  0.29191  0.75000  Biso   1.000  C
  C101     1.0000 0.70809  0.24875  0.75000  Biso   1.000  C
  C102     1.0000 0.75125  0.45934  0.75000  Biso   1.000  C
  C103     1.0000 0.70809  0.45934  0.75000  Biso   1.000  C
  C104     1.0000 0.75125  0.29191  0.75000  Biso   1.000  C
  C105     1.0000 0.54066  0.24875  0.75000  Biso   1.000  C
  C106     1.0000 0.29191  0.54066  0.25000  Biso   1.000  C
  C107     1.0000 0.24875  0.70809  0.25000  Biso   1.000  C
  C108     1.0000 0.45934  0.75125  0.25000  Biso   1.000  C
  O13      1.0000 0.49971  0.79341  0.25000  Biso   1.000  O
  O14      1.0000 0.20659  0.70630  0.25000  Biso   1.000  O
  O15      1.0000 0.29370  0.50029  0.25000  Biso   1.000  O
  O16      1.0000 0.50029  0.20659  0.75000  Biso   1.000  O
  O17      1.0000 0.79341  0.29370  0.75000  Biso   1.000  O
  O18      1.0000 0.70630  0.49971  0.75000  Biso   1.000  O
  O19      1.0000 0.79341  0.49971  0.75000  Biso   1.000  O
  O20      1.0000 0.70630  0.20659  0.75000  Biso   1.000  O
  O21      1.0000 0.50029  0.29370  0.75000  Biso   1.000  O
  O22      1.0000 0.20659  0.50029  0.25000  Biso   1.000  O
  O23      1.0000 0.29370  0.79341  0.25000  Biso   1.000  O
  O24      1.0000 0.49971  0.70630  0.25000  Biso   1.000  O
  C109     1.0000 0.54015  0.79186  0.25000  Biso   1.000  C
  C110     1.0000 0.20814  0.74829  0.25000  Biso   1.000  C
  C111     1.0000 0.25171  0.45985  0.25000  Biso   1.000  C
  C112     1.0000 0.45985  0.20814  0.75000  Biso   1.000  C
  C113     1.0000 0.79186  0.25171  0.75000  Biso   1.000  C
  C114     1.0000 0.74829  0.54015  0.75000  Biso   1.000  C
  C115     1.0000 0.79186  0.54015  0.75000  Biso   1.000  C
  C116     1.0000 0.74829  0.20814  0.75000  Biso   1.000  C
  C117     1.0000 0.45985  0.25171  0.75000  Biso   1.000  C
  C118     1.0000 0.20814  0.45985  0.25000  Biso   1.000  C
  C119     1.0000 0.25171  0.79186  0.25000  Biso   1.000  C
  C120     1.0000 0.54015  0.74829  0.25000  Biso   1.000  C
  C121     1.0000 0.58162  0.74919  0.25000  Biso   1.000  C
  C122     1.0000 0.25081  0.83243  0.25000  Biso   1.000  C
  C123     1.0000 0.16757  0.41838  0.25000  Biso   1.000  C
  C124     1.0000 0.41838  0.25081  0.75000  Biso   1.000  C
  C125     1.0000 0.74919  0.16757  0.75000  Biso   1.000  C
  C126     1.0000 0.83243  0.58162  0.75000  Biso   1.000  C
  C127     1.0000 0.74919  0.58162  0.75000  Biso   1.000  C
  C128     1.0000 0.83243  0.25081  0.75000  Biso   1.000  C
  C129     1.0000 0.41838  0.16757  0.75000  Biso   1.000  C
  C130     1.0000 0.25081  0.41838  0.25000  Biso   1.000  C
  C131     1.0000 0.16757  0.74919  0.25000  Biso   1.000  C
  C132     1.0000 0.58162  0.83243  0.25000  Biso   1.000  C
  C133     1.0000 0.62302  0.83232  0.25000  Biso   1.000  C
  C134     1.0000 0.16768  0.79070  0.25000  Biso   1.000  C
  C135     1.0000 0.20930  0.37698  0.25000  Biso   1.000  C
  C136     1.0000 0.37698  0.16768  0.75000  Biso   1.000  C
  C137     1.0000 0.83232  0.20930  0.75000  Biso   1.000  C
  C138     1.0000 0.79070  0.62302  0.75000  Biso   1.000  C
  C139     1.0000 0.83232  0.62302  0.75000  Biso   1.000  C
  C140     1.0000 0.79070  0.16768  0.75000  Biso   1.000  C
  C141     1.0000 0.37698  0.20930  0.75000  Biso   1.000  C
  C142     1.0000 0.16768  0.37698  0.25000  Biso   1.000  C
  C143     1.0000 0.20930  0.83232  0.25000  Biso   1.000  C
  C144     1.0000 0.62302  0.79070  0.25000  Biso   1.000  C
  H1       1.0000 0.58139  0.71717  0.25000  Biso   1.000  H
  H2       1.0000 0.28283  0.86422  0.25000  Biso   1.000  H
  H3       1.0000 0.13578  0.41861  0.25000  Biso   1.000  H
  H4       1.0000 0.41861  0.28283  0.75000  Biso   1.000  H
  H5       1.0000 0.71717  0.13578  0.75000  Biso   1.000  H
  H6       1.0000 0.86422  0.58139  0.75000  Biso   1.000  H
  H7       1.0000 0.71717  0.58139  0.75000  Biso   1.000  H
  H8       1.0000 0.86422  0.28283  0.75000  Biso   1.000  H
  H9       1.0000 0.41861  0.13578  0.75000  Biso   1.000  H
  H10      1.0000 0.28283  0.41861  0.25000  Biso   1.000  H
  H11      1.0000 0.13578  0.71717  0.25000  Biso   1.000  H
  H12      1.0000 0.58139  0.86422  0.25000  Biso   1.000  H
  H13      1.0000 0.42125  0.78332  0.25000  Biso   1.000  H
  H14      1.0000 0.21668  0.63793  0.25000  Biso   1.000  H
  H15      1.0000 0.36207  0.57875  0.25000  Biso   1.000  H
  H16      1.0000 0.57875  0.21668  0.75000  Biso   1.000  H
  H17      1.0000 0.78332  0.36207  0.75000  Biso   1.000  H
  H18      1.0000 0.63793  0.42125  0.75000  Biso   1.000  H
  H19      1.0000 0.78332  0.42125  0.75000  Biso   1.000  H
  H20      1.0000 0.63793  0.21668  0.75000  Biso   1.000  H
  H21      1.0000 0.57875  0.36207  0.75000  Biso   1.000  H
  H22      1.0000 0.21668  0.57875  0.25000  Biso   1.000  H
  H23      1.0000 0.36207  0.78332  0.25000  Biso   1.000  H
  H24      1.0000 0.42125  0.63793  0.25000  Biso   1.000  H
  H25      1.0000 0.91215  0.88339  0.25000  Biso   1.000  H
  H26      1.0000 0.11661  0.02876  0.25000  Biso   1.000  H
  H27      1.0000 0.97124  0.08785  0.25000  Biso   1.000  H
  H28      1.0000 0.08785  0.11661  0.75000  Biso   1.000  H
  H29      1.0000 0.88339  0.97124  0.75000  Biso   1.000  H
  H30      1.0000 0.02876  0.91215  0.75000  Biso   1.000  H
  H31      1.0000 0.88339  0.91215  0.75000  Biso   1.000  H
  H32      1.0000 0.02876  0.11661  0.75000  Biso   1.000  H
  H33      1.0000 0.08785  0.97124  0.75000  Biso   1.000  H
  H34      1.0000 0.11661  0.08785  0.25000  Biso   1.000  H
  H35      1.0000 0.97124  0.88339  0.25000  Biso   1.000  H
  H36      1.0000 0.91215  0.02876  0.25000  Biso   1.000  H
  H37      1.0000 0.75221  0.80258  0.25000  Biso   1.000  H
  H38      1.0000 0.19742  0.94963  0.25000  Biso   1.000  H
  H39      1.0000 0.05037  0.24779  0.25000  Biso   1.000  H
  H40      1.0000 0.24779  0.19742  0.75000  Biso   1.000  H
  H41      1.0000 0.80258  0.05037  0.75000  Biso   1.000  H
  H42      1.0000 0.94963  0.75221  0.75000  Biso   1.000  H
  H43      1.0000 0.80258  0.75221  0.75000  Biso   1.000  H
  H44      1.0000 0.94963  0.19742  0.75000  Biso   1.000  H
  H45      1.0000 0.24779  0.05037  0.75000  Biso   1.000  H
  H46      1.0000 0.19742  0.24779  0.25000  Biso   1.000  H
  H47      1.0000 0.05037  0.80258  0.25000  Biso   1.000  H
  H48      1.0000 0.75221  0.94963  0.25000  Biso   1.000  H
  C145     1.0000 0.66680  0.87592  0.25000  Biso   1.000  C
  C146     1.0000 0.12408  0.79088  0.25000  Biso   1.000  C
  C147     1.0000 0.20912  0.33320  0.25000  Biso   1.000  C
  C148     1.0000 0.33320  0.12408  0.75000  Biso   1.000  C
  C149     1.0000 0.87592  0.20912  0.75000  Biso   1.000  C
  C150     1.0000 0.79088  0.66680  0.75000  Biso   1.000  C
  C151     1.0000 0.87592  0.66680  0.75000  Biso   1.000  C
  C152     1.0000 0.79088  0.12408  0.75000  Biso   1.000  C
  C153     1.0000 0.33320  0.20912  0.75000  Biso   1.000  C
  C154     1.0000 0.12408  0.33320  0.25000  Biso   1.000  C
  C155     1.0000 0.20912  0.87592  0.25000  Biso   1.000  C
  C156     1.0000 0.66680  0.79088  0.25000  Biso   1.000  C
  O25      1.0000 0.66680  0.91188  0.25000  Biso   1.000  O
  O26      1.0000 0.08812  0.75492  0.25000  Biso   1.000  O
  O27      1.0000 0.24508  0.33320  0.25000  Biso   1.000  O
  O28      1.0000 0.33320  0.08812  0.75000  Biso   1.000  O
  O29      1.0000 0.91188  0.24508  0.75000  Biso   1.000  O
  O30      1.0000 0.75492  0.66680  0.75000  Biso   1.000  O
  O31      1.0000 0.91188  0.66680  0.75000  Biso   1.000  O
  O32      1.0000 0.75492  0.08812  0.75000  Biso   1.000  O
  O33      1.0000 0.33320  0.24508  0.75000  Biso   1.000  O
  O34      1.0000 0.08812  0.33320  0.25000  Biso   1.000  O
  O35      1.0000 0.24508  0.91188  0.25000  Biso   1.000  O
  O36      1.0000 0.66680  0.75492  0.25000  Biso   1.000  O
