data_image0
_cell_length_a       24.6725
_cell_length_b       24.6725
_cell_length_c       6.6222
_cell_angle_alpha    90
_cell_angle_beta     90
_cell_angle_gamma    120

_symmetry_space_group_name_H-M    "P 1"
_symmetry_int_tables_number       1

loop_
  _symmetry_equiv_pos_as_xyz
  'x, y, z'

loop_
  _atom_site_label
  _atom_site_occupancy
  _atom_site_fract_x
  _atom_site_fract_y
  _atom_site_fract_z
  _atom_site_thermal_displace_type
  _atom_site_B_iso_or_equiv
  _atom_site_type_symbol
  C1       1.0000 0.00000  0.05601  0.25000  Biso   1.000  C
  C2       1.0000 0.94399  0.94399  0.25000  Biso   1.000  C
  C3       1.0000 0.05601  0.00000  0.25000  Biso   1.000  C
  C4       1.0000 0.00000  0.94399  0.75000  Biso   1.000  C
  C5       1.0000 0.05601  0.05601  0.75000  Biso   1.000  C
  C6       1.0000 0.94399  0.00000  0.75000  Biso   1.000  C
  C7       1.0000 0.05601  0.00000  0.75000  Biso   1.000  C
  C8       1.0000 0.94399  0.94399  0.75000  Biso   1.000  C
  C9       1.0000 0.00000  0.05601  0.75000  Biso   1.000  C
  C10      1.0000 0.94399  0.00000  0.25000  Biso   1.000  C
  C11      1.0000 0.05601  0.05601  0.25000  Biso   1.000  C
  C12      1.0000 0.00000  0.94399  0.25000  Biso   1.000  C
  C13      1.0000 0.11142  0.99921  0.25000  Biso   1.000  C
  C14      1.0000 0.00079  0.11221  0.25000  Biso   1.000  C
  C15      1.0000 0.88779  0.88858  0.25000  Biso   1.000  C
  C16      1.0000 0.88858  0.00079  0.75000  Biso   1.000  C
  C17      1.0000 0.99921  0.88779  0.75000  Biso   1.000  C
  C18      1.0000 0.11221  0.11142  0.75000  Biso   1.000  C
  C19      1.0000 0.99921  0.11142  0.75000  Biso   1.000  C
  C20      1.0000 0.11221  0.00079  0.75000  Biso   1.000  C
  C21      1.0000 0.88858  0.88779  0.75000  Biso   1.000  C
  C22      1.0000 0.00079  0.88858  0.25000  Biso   1.000  C
  C23      1.0000 0.88779  0.99921  0.25000  Biso   1.000  C
  C24      1.0000 0.11142  0.11221  0.25000  Biso   1.000  C
  C25      1.0000 0.11179  0.94403  0.25000  Biso   1.000  C
  C26      1.0000 0.05597  0.16776  0.25000  Biso   1.000  C
  C27      1.0000 0.83224  0.88821  0.25000  Biso   1.000  C
  C28      1.0000 0.88821  0.05597  0.75000  Biso   1.000  C
  C29      1.0000 0.94403  0.83224  0.75000  Biso   1.000  C
  C30      1.0000 0.16776  0.11179  0.75000  Biso   1.000  C
  C31      1.0000 0.94403  0.11179  0.75000  Biso   1.000  C
  C32      1.0000 0.16776  0.05597  0.75000  Biso   1.000  C
  C33      1.0000 0.88821  0.83224  0.75000  Biso   1.000  C
  C34      1.0000 0.05597  0.88821  0.25000  Biso   1.000  C
  C35      1.0000 0.83224  0.94403  0.25000  Biso   1.000  C
  C36      1.0000 0.11179  0.16776  0.25000  Biso   1.000  C
  O1       1.0000 0.05396  0.83166  0.25000  Biso   1.000  O
  O2       1.0000 0.16834  0.22230  0.25000  Biso   1.000  O
  O3       1.0000 0.77770  0.94604  0.25000  Biso   1.000  O
  O4       1.0000 0.94604  0.16834  0.75000  Biso   1.000  O
  O5       1.0000 0.83166  0.77770  0.75000  Biso   1.000  O
  O6       1.0000 0.22230  0.05396  0.75000  Biso   1.000  O
  O7       1.0000 0.83166  0.05396  0.75000  Biso   1.000  O
  O8       1.0000 0.22230  0.16834  0.75000  Biso   1.000  O
  O9       1.0000 0.94604  0.77770  0.75000  Biso   1.000  O
  O10      1.0000 0.16834  0.94604  0.25000  Biso   1.000  O
  O11      1.0000 0.77770  0.83166  0.25000  Biso   1.000  O
  O12      1.0000 0.05396  0.22230  0.25000  Biso   1.000  O
  C37      1.0000 0.11059  0.83332  0.25000  Biso   1.000  C
  C38      1.0000 0.16668  0.27727  0.25000  Biso   1.000  C
  C39      1.0000 0.72273  0.88941  0.25000  Biso   1.000  C
  C40      1.0000 0.88941  0.16668  0.75000  Biso   1.000  C
  C41      1.0000 0.83332  0.72273  0.75000  Biso   1.000  C
  C42      1.0000 0.27727  0.11059  0.75000  Biso   1.000  C
  C43      1.0000 0.83332  0.11059  0.75000  Biso   1.000  C
  C44      1.0000 0.27727  0.16668  0.75000  Biso   1.000  C
  C45      1.0000 0.88941  0.72273  0.75000  Biso   1.000  C
  C46      1.0000 0.16668  0.88941  0.25000  Biso   1.000  C
  C47      1.0000 0.72273  0.83332  0.25000  Biso   1.000  C
  C48      1.0000 0.11059  0.27727  0.25000  Biso   1.000  C
  C49      1.0000 0.22229  0.88915  0.25000  Biso   1.000  C
  C50      1.0000 0.11085  0.33314  0.25000  Biso   1.000  C
  C51      1.0000 0.66686  0.77771  0.25000  Biso   1.000  C
  C52      1.0000 0.77771  0.11085  0.75000  Biso   1.000  C
  C53      1.0000 0.88915  0.66686  0.75000  Biso   1.000  C
  C54      1.0000 0.33314  0.22229  0.75000  Biso   1.000  C
  C55      1.0000 0.88915  0.22229  0.75000  Biso   1.000  C
  C56      1.0000 0.33314  0.11085  0.75000  Biso   1.000  C
  C57      1.0000 0.77771  0.66686  0.75000  Biso   1.000  C
  C58      1.0000 0.11085  0.77771  0.25000  Biso   1.000  C
  C59      1.0000 0.66686  0.88915  0.25000  Biso   1.000  C
  C60      1.0000 0.22229  0.33314  0.25000  Biso   1.000  C
  C61      1.0000 0.22257  0.83353  0.25000  Biso   1.000  C
  C62      1.0000 0.16647  0.38904  0.25000  Biso   1.000  C
  C63      1.0000 0.61096  0.77743  0.25000  Biso   1.000  C
  C64      1.0000 0.77743  0.16647  0.75000  Biso   1.000  C
  C65      1.0000 0.83353  0.61096  0.75000  Biso   1.000  C
  C66      1.0000 0.38904  0.22257  0.75000  Biso   1.000  C
  C67      1.0000 0.83353  0.22257  0.75000  Biso   1.000  C
  C68      1.0000 0.38904  0.16647  0.75000  Biso   1.000  C
  C69      1.0000 0.77743  0.61096  0.75000  Biso   1.000  C
  C70      1.0000 0.16647  0.77743  0.25000  Biso   1.000  C
  C71      1.0000 0.61096  0.83353  0.25000  Biso   1.000  C
  C72      1.0000 0.22257  0.38904  0.25000  Biso   1.000  C
  C73      1.0000 0.27960  0.94656  0.25000  Biso   1.000  C
  C74      1.0000 0.05344  0.33304  0.25000  Biso   1.000  C
  C75      1.0000 0.66696  0.72040  0.25000  Biso   1.000  C
  C76      1.0000 0.72040  0.05344  0.75000  Biso   1.000  C
  C77      1.0000 0.94656  0.66696  0.75000  Biso   1.000  C
  C78      1.0000 0.33304  0.27960  0.75000  Biso   1.000  C
  C79      1.0000 0.94656  0.27960  0.75000  Biso   1.000  C
  C80      1.0000 0.33304  0.05344  0.75000  Biso   1.000  C
  C81      1.0000 0.72040  0.66696  0.75000  Biso   1.000  C
  C82      1.0000 0.05344  0.72040  0.25000  Biso   1.000  C
  C83      1.0000 0.66696  0.94656  0.25000  Biso   1.000  C
  C84      1.0000 0.27960  0.33304  0.25000  Biso   1.000  C
  N1       1.0000 0.00740  0.67450  0.25000  Biso   1.000  N
  N2       1.0000 0.32550  0.33290  0.25000  Biso   1.000  N
  N3       1.0000 0.66710  0.99260  0.25000  Biso   1.000  N
  N4       1.0000 0.99260  0.32550  0.75000  Biso   1.000  N
  N5       1.0000 0.67450  0.66710  0.75000  Biso   1.000  N
  N6       1.0000 0.33290  0.00740  0.75000  Biso   1.000  N
  N7       1.0000 0.67450  0.00740  0.75000  Biso   1.000  N
  N8       1.0000 0.33290  0.32550  0.75000  Biso   1.000  N
  N9       1.0000 0.99260  0.66710  0.75000  Biso   1.000  N
  N10      1.0000 0.32550  0.99260  0.25000  Biso   1.000  N
  N11      1.0000 0.66710  0.67450  0.25000  Biso   1.000  N
  N12      1.0000 0.00740  0.33290  0.25000  Biso   1.000  N
  C85      1.0000 0.33342  0.61058  0.25000  Biso   1.000  C
  C86      1.0000 0.38942  0.72284  0.25000  Biso   1.000  C
  C87      1.0000 0.27716  0.66658  0.25000  Biso   1.000  C
  C88      1.0000 0.66658  0.38942  0.75000  Biso   1.000  C
  C89      1.0000 0.61058  0.27716  0.75000  Biso   1.000  C
  C90      1.0000 0.72284  0.33342  0.75000  Biso   1.000  C
  C91      1.0000 0.61058  0.33342  0.75000  Biso   1.000  C
  C92      1.0000 0.72284  0.38942  0.75000  Biso   1.000  C
  C93      1.0000 0.66658  0.27716  0.75000  Biso   1.000  C
  C94      1.0000 0.38942  0.66658  0.25000  Biso   1.000  C
  C95      1.0000 0.27716  0.61058  0.25000  Biso   1.000  C
  C96      1.0000 0.33342  0.72284  0.25000  Biso   1.000  C
  C97      1.0000 0.22183  0.66753  0.25000  Biso   1.000  C
  C98      1.0000 0.33247  0.55430  0.25000  Biso   1.000  C
  C99      1.0000 0.44570  0.77817  0.25000  Biso   1.000  C
  C100     1.0000 0.77817  0.33247  0.75000  Biso   1.000  C
  C101     1.0000 0.66753  0.44570  0.75000  Biso   1.000  C
  C102     1.0000 0.55430  0.22183  0.75000  Biso   1.000  C
  C103     1.0000 0.66753  0.22183  0.75000  Biso   1.000  C
  C104     1.0000 0.55430  0.33247  0.75000  Biso   1.000  C
  C105     1.0000 0.77817  0.44570  0.75000  Biso   1.000  C
  C106     1.0000 0.33247  0.77817  0.25000  Biso   1.000  C
  C107     1.0000 0.44570  0.66753  0.25000  Biso   1.000  C
  C108     1.0000 0.22183  0.55430  0.25000  Biso   1.000  C
  C109     1.0000 0.22142  0.72276  0.25000  Biso   1.000  C
  C110     1.0000 0.27724  0.49866  0.25000  Biso   1.000  C
  C111     1.0000 0.50134  0.77858  0.25000  Biso   1.000  C
  C112     1.0000 0.77858  0.27724  0.75000  Biso   1.000  C
  C113     1.0000 0.72276  0.50134  0.75000  Biso   1.000  C
  C114     1.0000 0.49866  0.22142  0.75000  Biso   1.000  C
  C115     1.0000 0.72276  0.22142  0.75000  Biso   1.000  C
  C116     1.0000 0.49866  0.27724  0.75000  Biso   1.000  C
  C117     1.0000 0.77858  0.50134  0.75000  Biso   1.000  C
  C118     1.0000 0.27724  0.77858  0.25000  Biso   1.000  C
  C119     1.0000 0.50134  0.72276  0.25000  Biso   1.000  C
  C120     1.0000 0.22142  0.49866  0.25000  Biso   1.000  C
  O13      1.0000 0.27921  0.83515  0.25000  Biso   1.000  O
  O14      1.0000 0.16485  0.44406  0.25000  Biso   1.000  O
  O15      1.0000 0.55594  0.72079  0.25000  Biso   1.000  O
  O16      1.0000 0.72079  0.16485  0.75000  Biso   1.000  O
  O17      1.0000 0.83515  0.55594  0.75000  Biso   1.000  O
  O18      1.0000 0.44406  0.27921  0.75000  Biso   1.000  O
  O19      1.0000 0.83515  0.27921  0.75000  Biso   1.000  O
  O20      1.0000 0.44406  0.16485  0.75000  Biso   1.000  O
  O21      1.0000 0.72079  0.55594  0.75000  Biso   1.000  O
  O22      1.0000 0.16485  0.72079  0.25000  Biso   1.000  O
  O23      1.0000 0.55594  0.83515  0.25000  Biso   1.000  O
  O24      1.0000 0.27921  0.44406  0.25000  Biso   1.000  O
