data_image0
_cell_length_a       11.2
_cell_length_b       11.05
_cell_length_c       6.98
_cell_angle_alpha    89.9
_cell_angle_beta     90.3
_cell_angle_gamma    59.9

_symmetry_space_group_name_H-M    "P 1"
_symmetry_int_tables_number       1

loop_
  _symmetry_equiv_pos_as_xyz
  'x, y, z'

loop_
  _atom_site_label
  _atom_site_occupancy
  _atom_site_fract_x
  _atom_site_fract_y
  _atom_site_fract_z
  _atom_site_thermal_displace_type
  _atom_site_B_iso_or_equiv
  _atom_site_type_symbol
  C1       1.0000 0.45823  0.42543  0.00372  Biso   1.000  C
  C2       1.0000 0.60951  0.36799  0.99797  Biso   1.000  C
  C3       1.0000 0.66156  0.46759  0.99808  Biso   1.000  C
  C4       1.0000 0.56694  0.62083  0.99658  Biso   1.000  C
  C5       1.0000 0.41656  0.67382  0.99564  Biso   1.000  C
  C6       1.0000 0.36004  0.57793  0.00268  Biso   1.000  C
  C7       1.0000 0.41247  0.32990  0.00352  Biso   1.000  C
  H1       1.0000 0.48725  0.21639  0.00430  Biso   1.000  H
  N1       1.0000 0.27665  0.36891  0.00234  Biso   1.000  N
  C8       1.0000 0.22873  0.27559  0.00200  Biso   1.000  C
  C9       1.0000 0.04749  0.23584  0.00038  Biso   1.000  C
  C10      1.0000 0.26807  0.05205  0.00262  Biso   1.000  C
  N2       1.0000 0.09063  0.33012  0.00066  Biso   1.000  N
  N3       1.0000 0.32180  0.13748  0.00298  Biso   1.000  N
  N4       1.0000 0.13187  0.09591  0.00139  Biso   1.000  N
  H2       1.0000 0.20632  0.47686  0.00161  Biso   1.000  H
  O1       1.0000 0.61415  0.70121  0.99614  Biso   1.000  O
  O2       1.0000 0.23346  0.62583  0.00180  Biso   1.000  O
  O3       1.0000 0.68916  0.23978  0.99898  Biso   1.000  O
  C11      1.0000 0.32204  0.81579  0.00194  Biso   1.000  C
  H3       1.0000 0.21013  0.85315  0.00126  Biso   1.000  H
  C12      1.0000 0.80155  0.42167  0.99964  Biso   1.000  C
  H4       1.0000 0.83803  0.49798  0.99973  Biso   1.000  H
  N5       1.0000 0.36032  0.91454  0.99492  Biso   1.000  N
  N6       1.0000 0.89938  0.28423  0.00823  Biso   1.000  N
  H5       1.0000 0.86368  0.21264  0.00804  Biso   1.000  H
  H6       1.0000 0.46677  0.87797  0.99565  Biso   1.000  H
  C13      1.0000 0.45823  0.42543  0.50016  Biso   1.000  C
  C14      1.0000 0.60951  0.36799  0.50152  Biso   1.000  C
  C15      1.0000 0.66156  0.46759  0.50164  Biso   1.000  C
  C16      1.0000 0.56694  0.62083  0.50013  Biso   1.000  C
  C17      1.0000 0.41656  0.67382  0.49919  Biso   1.000  C
  C18      1.0000 0.36004  0.57793  0.49913  Biso   1.000  C
  C19      1.0000 0.41247  0.32990  0.49996  Biso   1.000  C
  H7       1.0000 0.48725  0.21639  0.50075  Biso   1.000  H
  N7       1.0000 0.27665  0.36891  0.49878  Biso   1.000  N
  C20      1.0000 0.22873  0.27559  0.49845  Biso   1.000  C
  C21      1.0000 0.04749  0.23584  0.49682  Biso   1.000  C
  C22      1.0000 0.26807  0.05205  0.49906  Biso   1.000  C
  N8       1.0000 0.09063  0.33012  0.49711  Biso   1.000  N
  N9       1.0000 0.32180  0.13748  0.49942  Biso   1.000  N
  N10      1.0000 0.13187  0.09591  0.49783  Biso   1.000  N
  H8       1.0000 0.20632  0.47686  0.49806  Biso   1.000  H
  O4       1.0000 0.61415  0.70121  0.49969  Biso   1.000  O
  O5       1.0000 0.23346  0.62583  0.49824  Biso   1.000  O
  O6       1.0000 0.68916  0.23978  0.50253  Biso   1.000  O
  C23      1.0000 0.32204  0.81579  0.49839  Biso   1.000  C
  H9       1.0000 0.21013  0.85315  0.49771  Biso   1.000  H
  C24      1.0000 0.80155  0.42167  0.50319  Biso   1.000  C
  H10      1.0000 0.83803  0.49798  0.50328  Biso   1.000  H
  N11      1.0000 0.36032  0.91454  0.49847  Biso   1.000  N
  N12      1.0000 0.89938  0.28423  0.50468  Biso   1.000  N
  H11      1.0000 0.86368  0.21264  0.50449  Biso   1.000  H
  H12      1.0000 0.46677  0.87797  0.49920  Biso   1.000  H
