data_image0
_cell_length_a       22.8345
_cell_length_b       22.9434
_cell_length_c       6.8744
_cell_angle_alpha    89.8514
_cell_angle_beta     89.7964
_cell_angle_gamma    120.543

_symmetry_space_group_name_H-M    "P 1"
_symmetry_int_tables_number       1

loop_
  _symmetry_equiv_pos_as_xyz
  'x, y, z'

loop_
  _atom_site_label
  _atom_site_occupancy
  _atom_site_fract_x
  _atom_site_fract_y
  _atom_site_fract_z
  _atom_site_thermal_displace_type
  _atom_site_B_iso_or_equiv
  _atom_site_type_symbol
  Li1      1.0000 0.71269  0.74818  0.81589  Biso   1.000  Li
  Li2      1.0000 0.03304  0.82067  0.71507  Biso   1.000  Li
  Li3      1.0000 0.77744  0.45280  0.96436  Biso   1.000  Li
  Li4      1.0000 0.97891  0.22751  0.76521  Biso   1.000  Li
  Li5      1.0000 0.29879  0.30188  0.65421  Biso   1.000  Li
  Li6      1.0000 0.23300  0.59338  0.41506  Biso   1.000  Li
  C1       1.0000 0.98814  0.94125  0.00245  Biso   1.000  C
  C2       1.0000 0.05762  0.98578  0.95916  Biso   1.000  C
  C3       1.0000 0.08422  0.05529  0.95015  Biso   1.000  C
  C4       1.0000 0.04221  0.08253  0.98048  Biso   1.000  C
  C5       1.0000 0.97249  0.03845  0.01705  Biso   1.000  C
  C6       1.0000 0.94612  0.96880  0.02891  Biso   1.000  C
  C7       1.0000 0.13211  0.20340  0.97065  Biso   1.000  C
  C8       1.0000 0.90148  0.81966  0.00147  Biso   1.000  C
  C9       1.0000 0.87928  0.75026  0.99581  Biso   1.000  C
  C10      1.0000 0.92478  0.72400  0.97129  Biso   1.000  C
  C11      1.0000 0.80576  0.70491  0.99520  Biso   1.000  C
  C12      1.0000 0.89660  0.65066  0.98331  Biso   1.000  C
  C13      1.0000 0.77867  0.63241  0.99378  Biso   1.000  C
  C14      1.0000 0.82346  0.60453  0.98766  Biso   1.000  C
  C15      1.0000 0.15428  0.27268  0.97326  Biso   1.000  C
  C16      1.0000 0.10713  0.29730  0.98221  Biso   1.000  C
  C17      1.0000 0.22771  0.31999  0.95732  Biso   1.000  C
  C18      1.0000 0.13413  0.36973  0.99373  Biso   1.000  C
  C19      1.0000 0.25378  0.39187  0.97962  Biso   1.000  C
  C20      1.0000 0.20720  0.41823  0.99252  Biso   1.000  C
  C21      1.0000 0.32367  0.44022  0.97892  Biso   1.000  C
  C22      1.0000 0.94406  0.62912  0.97899  Biso   1.000  C
  C23      1.0000 0.70850  0.58576  0.98836  Biso   1.000  C
  C24      1.0000 0.08672  0.39127  0.99912  Biso   1.000  C
  C25      1.0000 0.97351  0.53877  0.99873  Biso   1.000  C
  C26      1.0000 0.94530  0.46814  0.02558  Biso   1.000  C
  C27      1.0000 0.04373  0.57884  0.96712  Biso   1.000  C
  C28      1.0000 0.98703  0.44004  0.02756  Biso   1.000  C
  C29      1.0000 0.08495  0.55047  0.96522  Biso   1.000  C
  C30      1.0000 0.05739  0.48099  0.99829  Biso   1.000  C
  C31      1.0000 0.44540  0.47278  0.97633  Biso   1.000  C
  C32      1.0000 0.48768  0.44471  0.97607  Biso   1.000  C
  C33      1.0000 0.47532  0.54329  0.98432  Biso   1.000  C
  C34      1.0000 0.55784  0.48618  0.98615  Biso   1.000  C
  C35      1.0000 0.54578  0.58511  0.99390  Biso   1.000  C
  C36      1.0000 0.58825  0.55681  0.99584  Biso   1.000  C
  C37      1.0000 0.97011  0.96635  0.50121  Biso   1.000  C
  C38      1.0000 0.92806  0.99357  0.53094  Biso   1.000  C
  C39      1.0000 0.95461  0.06305  0.52090  Biso   1.000  C
  C40      1.0000 0.02413  0.10756  0.47809  Biso   1.000  C
  C41      1.0000 0.06627  0.08007  0.45274  Biso   1.000  C
  C42      1.0000 0.03988  0.01042  0.46518  Biso   1.000  C
  C43      1.0000 0.11058  0.22926  0.47534  Biso   1.000  C
  C44      1.0000 0.87995  0.84563  0.50572  Biso   1.000  C
  C45      1.0000 0.85722  0.77621  0.50319  Biso   1.000  C
  C46      1.0000 0.90391  0.75096  0.49845  Biso   1.000  C
  C47      1.0000 0.78354  0.72948  0.51553  Biso   1.000  C
  C48      1.0000 0.87625  0.67835  0.48800  Biso   1.000  C
  C49      1.0000 0.75690  0.65749  0.49361  Biso   1.000  C
  C50      1.0000 0.80302  0.63045  0.48541  Biso   1.000  C
  C51      1.0000 0.13217  0.29852  0.47946  Biso   1.000  C
  C52      1.0000 0.08620  0.32411  0.50624  Biso   1.000  C
  C53      1.0000 0.20552  0.34449  0.47745  Biso   1.000  C
  C54      1.0000 0.11366  0.39727  0.49832  Biso   1.000  C
  C55      1.0000 0.23186  0.41686  0.47844  Biso   1.000  C
  C56      1.0000 0.18644  0.44387  0.48611  Biso   1.000  C
  C57      1.0000 0.30195  0.46404  0.48210  Biso   1.000  C
  C58      1.0000 0.92302  0.65600  0.48730  Biso   1.000  C
  C59      1.0000 0.68689  0.60958  0.49175  Biso   1.000  C
  C60      1.0000 0.06575  0.41835  0.49974  Biso   1.000  C
  C61      1.0000 0.95164  0.56579  0.49155  Biso   1.000  C
  C62      1.0000 0.02230  0.60706  0.46921  Biso   1.000  C
  C63      1.0000 0.92399  0.49606  0.52049  Biso   1.000  C
  C64      1.0000 0.06446  0.57946  0.47473  Biso   1.000  C
  C65      1.0000 0.96575  0.46827  0.52556  Biso   1.000  C
  C66      1.0000 0.03637  0.50890  0.50201  Biso   1.000  C
  C67      1.0000 0.42238  0.49351  0.47268  Biso   1.000  C
  C68      1.0000 0.45286  0.56416  0.48238  Biso   1.000  C
  C69      1.0000 0.46488  0.46525  0.47406  Biso   1.000  C
  C70      1.0000 0.52305  0.60557  0.49226  Biso   1.000  C
  C71      1.0000 0.53533  0.50700  0.48348  Biso   1.000  C
  C72      1.0000 0.56533  0.57750  0.49180  Biso   1.000  C
  O1       1.0000 0.98764  0.76363  0.93513  Biso   1.000  O
  O2       1.0000 0.26779  0.29812  0.91641  Biso   1.000  O
  O3       1.0000 0.22932  0.48126  0.99894  Biso   1.000  O
  O4       1.0000 0.04286  0.25550  0.97488  Biso   1.000  O
  O5       1.0000 0.76578  0.72855  0.99071  Biso   1.000  O
  O6       1.0000 0.79889  0.54068  0.98119  Biso   1.000  O
  O7       1.0000 0.62906  0.69880  0.16947  Biso   1.000  O
  O8       1.0000 0.52061  0.68380  0.03165  Biso   1.000  O
  O9       1.0000 0.61716  0.70279  0.81811  Biso   1.000  O
  O10      1.0000 0.08429  0.91484  0.72036  Biso   1.000  O
  O11      1.0000 0.10167  0.90720  0.07059  Biso   1.000  O
  O12      1.0000 0.18142  0.01282  0.88272  Biso   1.000  O
  O13      1.0000 0.82500  0.40792  0.85486  Biso   1.000  O
  O14      1.0000 0.82887  0.44373  0.18423  Biso   1.000  O
  O15      1.0000 0.84789  0.34671  0.12081  Biso   1.000  O
  O16      1.0000 0.96818  0.79231  0.50832  Biso   1.000  O
  O17      1.0000 0.24605  0.32149  0.47935  Biso   1.000  O
  O18      1.0000 0.21025  0.50772  0.48191  Biso   1.000  O
  O19      1.0000 0.02349  0.28406  0.54372  Biso   1.000  O
  O20      1.0000 0.74369  0.75191  0.55312  Biso   1.000  O
  O21      1.0000 0.78039  0.56735  0.48079  Biso   1.000  O
  O22      1.0000 0.83034  0.03579  0.59084  Biso   1.000  O
  O23      1.0000 0.91103  0.14162  0.40546  Biso   1.000  O
  O24      1.0000 0.92642  0.13355  0.75702  Biso   1.000  O
  O25      1.0000 0.49047  0.36689  0.43508  Biso   1.000  O
  O26      1.0000 0.38173  0.35150  0.29862  Biso   1.000  O
  O27      1.0000 0.39415  0.34755  0.64996  Biso   1.000  O
  O28      1.0000 0.16259  0.70553  0.46036  Biso   1.000  O
  O29      1.0000 0.17864  0.62176  0.26864  Biso   1.000  O
  O30      1.0000 0.18686  0.62061  0.61577  Biso   1.000  O
  N1       1.0000 0.06717  0.15288  0.97687  Biso   1.000  N
  N2       1.0000 0.96516  0.87116  0.01445  Biso   1.000  N
  N3       1.0000 0.37451  0.42745  0.97119  Biso   1.000  N
  N4       1.0000 0.93006  0.56553  0.00543  Biso   1.000  N
  N5       1.0000 0.65937  0.60047  0.00969  Biso   1.000  N
  N6       1.0000 0.10244  0.45583  0.99836  Biso   1.000  N
  N7       1.0000 0.04696  0.17757  0.46481  Biso   1.000  N
  N8       1.0000 0.94502  0.89595  0.50450  Biso   1.000  N
  N9       1.0000 0.35130  0.44973  0.45915  Biso   1.000  N
  N10      1.0000 0.90676  0.59121  0.48744  Biso   1.000  N
  N11      1.0000 0.63625  0.62270  0.49739  Biso   1.000  N
  N12      1.0000 0.08022  0.48253  0.50988  Biso   1.000  N
  S1       1.0000 0.57965  0.67579  0.00757  Biso   1.000  S
  S2       1.0000 0.11368  0.95377  0.90599  Biso   1.000  S
  S3       1.0000 0.85476  0.40971  0.05058  Biso   1.000  S
  S4       1.0000 0.89817  0.09492  0.57043  Biso   1.000  S
  S5       1.0000 0.43130  0.37463  0.46008  Biso   1.000  S
  S6       1.0000 0.15516  0.63876  0.45281  Biso   1.000  S
  H1       1.0000 0.13817  0.08632  0.91542  Biso   1.000  H
  H2       1.0000 0.93893  0.05876  0.03826  Biso   1.000  H
  H3       1.0000 0.89227  0.93662  0.06361  Biso   1.000  H
  H4       1.0000 0.00393  0.86047  0.03269  Biso   1.000  H
  H5       1.0000 0.03252  0.16919  0.98231  Biso   1.000  H
  H6       1.0000 0.17151  0.18987  0.96615  Biso   1.000  H
  H7       1.0000 0.86152  0.83230  0.99548  Biso   1.000  H
  H8       1.0000 0.33677  0.49300  0.98813  Biso   1.000  H
  H9       1.0000 0.99694  0.66838  0.95470  Biso   1.000  H
  H10      1.0000 0.69337  0.53303  0.96457  Biso   1.000  H
  H11      1.0000 0.03300  0.35228  0.00210  Biso   1.000  H
  H12      1.0000 0.35919  0.37683  0.96963  Biso   1.000  H
  H13      1.0000 0.88101  0.53181  0.04863  Biso   1.000  H
  H14      1.0000 0.06793  0.63323  0.94372  Biso   1.000  H
  H15      1.0000 0.96233  0.38578  0.05459  Biso   1.000  H
  H16      1.0000 0.13892  0.58315  0.93656  Biso   1.000  H
  H17      1.0000 0.46534  0.39009  0.97067  Biso   1.000  H
  H18      1.0000 0.44552  0.56819  0.98506  Biso   1.000  H
  H19      1.0000 0.58845  0.46213  0.99034  Biso   1.000  H
  H20      1.0000 0.67561  0.65027  0.04445  Biso   1.000  H
  H21      1.0000 0.15484  0.48912  0.99458  Biso   1.000  H
  H22      1.0000 0.12016  0.11233  0.41850  Biso   1.000  H
  H23      1.0000 0.07341  0.99000  0.44517  Biso   1.000  H
  H24      1.0000 0.97967  0.87965  0.50284  Biso   1.000  H
  H25      1.0000 0.00813  0.18820  0.44653  Biso   1.000  H
  H26      1.0000 0.15080  0.21696  0.48019  Biso   1.000  H
  H27      1.0000 0.84077  0.85948  0.50612  Biso   1.000  H
  H28      1.0000 0.31684  0.51666  0.50704  Biso   1.000  H
  H29      1.0000 0.97687  0.69458  0.48873  Biso   1.000  H
  H30      1.0000 0.67354  0.55672  0.48264  Biso   1.000  H
  H31      1.0000 0.01235  0.37860  0.49107  Biso   1.000  H
  H32      1.0000 0.33511  0.39993  0.42446  Biso   1.000  H
  H33      1.0000 0.85428  0.55826  0.48590  Biso   1.000  H
  H34      1.0000 0.86964  0.46275  0.54137  Biso   1.000  H
  H35      1.0000 0.94179  0.41401  0.55136  Biso   1.000  H
  H36      1.0000 0.42233  0.58830  0.47865  Biso   1.000  H
  H37      1.0000 0.54541  0.66019  0.49792  Biso   1.000  H
  H38      1.0000 0.65171  0.67335  0.49915  Biso   1.000  H
  H39      1.0000 0.13087  0.51709  0.53066  Biso   1.000  H
  H40      1.0000 0.87407  0.96254  0.56550  Biso   1.000  H
  H41      1.0000 0.56505  0.48202  0.48200  Biso   1.000  H
  H42      1.0000 0.04721  0.66157  0.44684  Biso   1.000  H
