data_image0
_cell_length_a       29.0964
_cell_length_b       29.0964
_cell_length_c       6.892
_cell_angle_alpha    90
_cell_angle_beta     90
_cell_angle_gamma    120

_symmetry_space_group_name_H-M    "P 1"
_symmetry_int_tables_number       1

loop_
  _symmetry_equiv_pos_as_xyz
  'x, y, z'

loop_
  _atom_site_label
  _atom_site_occupancy
  _atom_site_fract_x
  _atom_site_fract_y
  _atom_site_fract_z
  _atom_site_thermal_displace_type
  _atom_site_B_iso_or_equiv
  _atom_site_type_symbol
  C1       1.0000 0.71800  0.24369  0.25000  Biso   1.000  C
  C2       1.0000 0.75631  0.47431  0.25000  Biso   1.000  C
  C3       1.0000 0.52569  0.28200  0.25000  Biso   1.000  C
  C4       1.0000 0.28200  0.75631  0.75000  Biso   1.000  C
  C5       1.0000 0.24369  0.52569  0.75000  Biso   1.000  C
  C6       1.0000 0.47431  0.71800  0.75000  Biso   1.000  C
  N1       1.0000 0.64613  0.28062  0.25000  Biso   1.000  N
  N2       1.0000 0.71938  0.36551  0.25000  Biso   1.000  N
  N3       1.0000 0.63449  0.35387  0.25000  Biso   1.000  N
  N4       1.0000 0.35387  0.71938  0.75000  Biso   1.000  N
  N5       1.0000 0.28062  0.63449  0.75000  Biso   1.000  N
  N6       1.0000 0.36551  0.64613  0.75000  Biso   1.000  N
  C7       1.0000 0.73247  0.29393  0.25000  Biso   1.000  C
  C8       1.0000 0.70607  0.43854  0.25000  Biso   1.000  C
  C9       1.0000 0.56146  0.26753  0.25000  Biso   1.000  C
  C10      1.0000 0.26753  0.70607  0.75000  Biso   1.000  C
  C11      1.0000 0.29393  0.56146  0.75000  Biso   1.000  C
  C12      1.0000 0.43854  0.73247  0.75000  Biso   1.000  C
  C13      1.0000 0.75208  0.22263  0.25000  Biso   1.000  C
  C14      1.0000 0.77737  0.52945  0.25000  Biso   1.000  C
  C15      1.0000 0.47055  0.24792  0.25000  Biso   1.000  C
  C16      1.0000 0.24792  0.77737  0.75000  Biso   1.000  C
  C17      1.0000 0.22263  0.47055  0.75000  Biso   1.000  C
  C18      1.0000 0.52945  0.75208  0.75000  Biso   1.000  C
  C19      1.0000 0.80587  0.25316  0.25000  Biso   1.000  C
  C20      1.0000 0.74684  0.55271  0.25000  Biso   1.000  C
  C21      1.0000 0.44729  0.19413  0.25000  Biso   1.000  C
  C22      1.0000 0.19413  0.74684  0.75000  Biso   1.000  C
  C23      1.0000 0.25316  0.44729  0.75000  Biso   1.000  C
  C24      1.0000 0.55271  0.80587  0.75000  Biso   1.000  C
  C25      1.0000 0.83691  0.23155  0.25000  Biso   1.000  C
  C26      1.0000 0.76845  0.60536  0.25000  Biso   1.000  C
  C27      1.0000 0.39464  0.16309  0.25000  Biso   1.000  C
  C28      1.0000 0.16309  0.76845  0.75000  Biso   1.000  C
  C29      1.0000 0.23155  0.39464  0.75000  Biso   1.000  C
  C30      1.0000 0.60536  0.83691  0.75000  Biso   1.000  C
  C31      1.0000 0.81660  0.17804  0.25000  Biso   1.000  C
  C32      1.0000 0.82196  0.63856  0.25000  Biso   1.000  C
  C33      1.0000 0.36144  0.18340  0.25000  Biso   1.000  C
  C34      1.0000 0.18340  0.82196  0.75000  Biso   1.000  C
  C35      1.0000 0.17804  0.36144  0.75000  Biso   1.000  C
  C36      1.0000 0.63856  0.81660  0.75000  Biso   1.000  C
  C37      1.0000 0.76285  0.14767  0.25000  Biso   1.000  C
  C38      1.0000 0.85233  0.61518  0.25000  Biso   1.000  C
  C39      1.0000 0.38482  0.23715  0.25000  Biso   1.000  C
  C40      1.0000 0.23715  0.85233  0.75000  Biso   1.000  C
  C41      1.0000 0.14767  0.38482  0.75000  Biso   1.000  C
  C42      1.0000 0.61518  0.76285  0.75000  Biso   1.000  C
  C43      1.0000 0.73161  0.16924  0.25000  Biso   1.000  C
  C44      1.0000 0.83076  0.56237  0.25000  Biso   1.000  C
  C45      1.0000 0.43763  0.26839  0.25000  Biso   1.000  C
  C46      1.0000 0.26839  0.83076  0.75000  Biso   1.000  C
  C47      1.0000 0.16924  0.43763  0.75000  Biso   1.000  C
  C48      1.0000 0.56237  0.73161  0.75000  Biso   1.000  C
  C49      1.0000 0.69735  0.31388  0.25000  Biso   1.000  C
  C50      1.0000 0.68612  0.38347  0.25000  Biso   1.000  C
  C51      1.0000 0.61653  0.30265  0.25000  Biso   1.000  C
  C52      1.0000 0.30265  0.68612  0.75000  Biso   1.000  C
  C53      1.0000 0.31388  0.61653  0.75000  Biso   1.000  C
  C54      1.0000 0.38347  0.69735  0.75000  Biso   1.000  C
  H1       1.0000 0.67693  0.21623  0.25000  Biso   1.000  H
  H2       1.0000 0.78377  0.46070  0.25000  Biso   1.000  H
  H3       1.0000 0.53930  0.32307  0.25000  Biso   1.000  H
  H4       1.0000 0.32307  0.78377  0.75000  Biso   1.000  H
  H5       1.0000 0.21623  0.53930  0.75000  Biso   1.000  H
  H6       1.0000 0.46070  0.67693  0.75000  Biso   1.000  H
  H7       1.0000 0.69012  0.14432  0.25000  Biso   1.000  H
  H8       1.0000 0.85568  0.54580  0.25000  Biso   1.000  H
  H9       1.0000 0.45420  0.30988  0.25000  Biso   1.000  H
  H10      1.0000 0.30988  0.85568  0.75000  Biso   1.000  H
  H11      1.0000 0.14432  0.45420  0.75000  Biso   1.000  H
  H12      1.0000 0.54580  0.69012  0.75000  Biso   1.000  H
  H13      1.0000 0.87817  0.25710  0.25000  Biso   1.000  H
  H14      1.0000 0.74290  0.62107  0.25000  Biso   1.000  H
  H15      1.0000 0.37893  0.12183  0.25000  Biso   1.000  H
  H16      1.0000 0.12183  0.74290  0.75000  Biso   1.000  H
  H17      1.0000 0.25710  0.37893  0.75000  Biso   1.000  H
  H18      1.0000 0.62107  0.87817  0.75000  Biso   1.000  H
  H19      1.0000 0.74473  0.10613  0.25000  Biso   1.000  H
  H20      1.0000 0.89387  0.63860  0.25000  Biso   1.000  H
  H21      1.0000 0.36140  0.25527  0.25000  Biso   1.000  H
  H22      1.0000 0.25527  0.89387  0.75000  Biso   1.000  H
  H23      1.0000 0.10613  0.36140  0.75000  Biso   1.000  H
  H24      1.0000 0.63860  0.74473  0.75000  Biso   1.000  H
  H25      1.0000 0.82367  0.29472  0.25000  Biso   1.000  H
  H26      1.0000 0.70528  0.52895  0.25000  Biso   1.000  H
  H27      1.0000 0.47105  0.17633  0.25000  Biso   1.000  H
  H28      1.0000 0.17633  0.70528  0.75000  Biso   1.000  H
  H29      1.0000 0.29472  0.47105  0.75000  Biso   1.000  H
  H30      1.0000 0.52895  0.82367  0.75000  Biso   1.000  H
  H31      1.0000 0.67639  0.44907  0.25000  Biso   1.000  H
  H32      1.0000 0.55093  0.22732  0.25000  Biso   1.000  H
  H33      1.0000 0.77268  0.32361  0.25000  Biso   1.000  H
  H34      1.0000 0.32361  0.55093  0.75000  Biso   1.000  H
  H35      1.0000 0.44907  0.77268  0.75000  Biso   1.000  H
  H36      1.0000 0.22732  0.67639  0.75000  Biso   1.000  H
  C55      1.0000 0.94866  0.08964  0.25000  Biso   1.000  C
  C56      1.0000 0.91036  0.85902  0.25000  Biso   1.000  C
  C57      1.0000 0.14098  0.05134  0.25000  Biso   1.000  C
  C58      1.0000 0.05134  0.91036  0.75000  Biso   1.000  C
  C59      1.0000 0.08964  0.14098  0.75000  Biso   1.000  C
  C60      1.0000 0.85902  0.94866  0.75000  Biso   1.000  C
  N7       1.0000 0.02054  0.05271  0.25000  Biso   1.000  N
  N8       1.0000 0.94729  0.96783  0.25000  Biso   1.000  N
  N9       1.0000 0.03217  0.97946  0.25000  Biso   1.000  N
  N10      1.0000 0.97946  0.94729  0.75000  Biso   1.000  N
  N11      1.0000 0.05271  0.03217  0.75000  Biso   1.000  N
  N12      1.0000 0.96783  0.02054  0.75000  Biso   1.000  N
  C61      1.0000 0.93419  0.03941  0.25000  Biso   1.000  C
  C62      1.0000 0.96059  0.89478  0.25000  Biso   1.000  C
  C63      1.0000 0.10522  0.06581  0.25000  Biso   1.000  C
  C64      1.0000 0.06581  0.96059  0.75000  Biso   1.000  C
  C65      1.0000 0.03941  0.10522  0.75000  Biso   1.000  C
  C66      1.0000 0.89478  0.93419  0.75000  Biso   1.000  C
  C67      1.0000 0.91459  0.11071  0.25000  Biso   1.000  C
  C68      1.0000 0.88929  0.80388  0.25000  Biso   1.000  C
  C69      1.0000 0.19612  0.08541  0.25000  Biso   1.000  C
  C70      1.0000 0.08541  0.88929  0.75000  Biso   1.000  C
  C71      1.0000 0.11071  0.19612  0.75000  Biso   1.000  C
  C72      1.0000 0.80388  0.91459  0.75000  Biso   1.000  C
  C73      1.0000 0.86080  0.08018  0.25000  Biso   1.000  C
  C74      1.0000 0.91982  0.78062  0.25000  Biso   1.000  C
  C75      1.0000 0.21938  0.13920  0.25000  Biso   1.000  C
  C76      1.0000 0.13920  0.91982  0.75000  Biso   1.000  C
  C77      1.0000 0.08018  0.21938  0.75000  Biso   1.000  C
  C78      1.0000 0.78062  0.86080  0.75000  Biso   1.000  C
  C79      1.0000 0.82976  0.10179  0.25000  Biso   1.000  C
  C80      1.0000 0.89821  0.72797  0.25000  Biso   1.000  C
  C81      1.0000 0.27203  0.17024  0.25000  Biso   1.000  C
  C82      1.0000 0.17024  0.89821  0.75000  Biso   1.000  C
  C83      1.0000 0.10179  0.27203  0.75000  Biso   1.000  C
  C84      1.0000 0.72797  0.82976  0.75000  Biso   1.000  C
  C85      1.0000 0.85007  0.15530  0.25000  Biso   1.000  C
  C86      1.0000 0.84470  0.69477  0.25000  Biso   1.000  C
  C87      1.0000 0.30523  0.14993  0.25000  Biso   1.000  C
  C88      1.0000 0.14993  0.84470  0.75000  Biso   1.000  C
  C89      1.0000 0.15530  0.30523  0.75000  Biso   1.000  C
  C90      1.0000 0.69477  0.85007  0.75000  Biso   1.000  C
  C91      1.0000 0.90381  0.18567  0.25000  Biso   1.000  C
  C92      1.0000 0.81433  0.71814  0.25000  Biso   1.000  C
  C93      1.0000 0.28186  0.09619  0.25000  Biso   1.000  C
  C94      1.0000 0.09619  0.81433  0.75000  Biso   1.000  C
  C95      1.0000 0.18567  0.28186  0.75000  Biso   1.000  C
  C96      1.0000 0.71814  0.90381  0.75000  Biso   1.000  C
  C97      1.0000 0.93505  0.16409  0.25000  Biso   1.000  C
  C98      1.0000 0.83591  0.77096  0.25000  Biso   1.000  C
  C99      1.0000 0.22904  0.06495  0.25000  Biso   1.000  C
  C100     1.0000 0.06495  0.83591  0.75000  Biso   1.000  C
  C101     1.0000 0.16409  0.22904  0.75000  Biso   1.000  C
  C102     1.0000 0.77096  0.93505  0.75000  Biso   1.000  C
  C103     1.0000 0.96932  0.01946  0.25000  Biso   1.000  C
  C104     1.0000 0.98054  0.94986  0.25000  Biso   1.000  C
  C105     1.0000 0.05014  0.03068  0.25000  Biso   1.000  C
  C106     1.0000 0.03068  0.98054  0.75000  Biso   1.000  C
  C107     1.0000 0.01946  0.05014  0.75000  Biso   1.000  C
  C108     1.0000 0.94986  0.96932  0.75000  Biso   1.000  C
  H37      1.0000 0.98974  0.11711  0.25000  Biso   1.000  H
  H38      1.0000 0.88289  0.87263  0.25000  Biso   1.000  H
  H39      1.0000 0.12737  0.01026  0.25000  Biso   1.000  H
  H40      1.0000 0.01026  0.88289  0.75000  Biso   1.000  H
  H41      1.0000 0.11711  0.12737  0.75000  Biso   1.000  H
  H42      1.0000 0.87263  0.98974  0.75000  Biso   1.000  H
  H43      1.0000 0.97655  0.18901  0.25000  Biso   1.000  H
  H44      1.0000 0.81099  0.78754  0.25000  Biso   1.000  H
  H45      1.0000 0.21246  0.02345  0.25000  Biso   1.000  H
  H46      1.0000 0.02345  0.81099  0.75000  Biso   1.000  H
  H47      1.0000 0.18901  0.21246  0.75000  Biso   1.000  H
  H48      1.0000 0.78754  0.97655  0.75000  Biso   1.000  H
  H49      1.0000 0.78850  0.07624  0.25000  Biso   1.000  H
  H50      1.0000 0.92376  0.71226  0.25000  Biso   1.000  H
  H51      1.0000 0.28774  0.21150  0.25000  Biso   1.000  H
  H52      1.0000 0.21150  0.92376  0.75000  Biso   1.000  H
  H53      1.0000 0.07624  0.28774  0.75000  Biso   1.000  H
  H54      1.0000 0.71226  0.78850  0.75000  Biso   1.000  H
  H55      1.0000 0.92193  0.22720  0.25000  Biso   1.000  H
  H56      1.0000 0.77280  0.69473  0.25000  Biso   1.000  H
  H57      1.0000 0.30527  0.07807  0.25000  Biso   1.000  H
  H58      1.0000 0.07807  0.77280  0.75000  Biso   1.000  H
  H59      1.0000 0.22720  0.30527  0.75000  Biso   1.000  H
  H60      1.0000 0.69473  0.92193  0.75000  Biso   1.000  H
  H61      1.0000 0.84300  0.03862  0.25000  Biso   1.000  H
  H62      1.0000 0.96138  0.80438  0.25000  Biso   1.000  H
  H63      1.0000 0.19562  0.15700  0.25000  Biso   1.000  H
  H64      1.0000 0.15700  0.96138  0.75000  Biso   1.000  H
  H65      1.0000 0.03862  0.19562  0.75000  Biso   1.000  H
  H66      1.0000 0.80438  0.84300  0.75000  Biso   1.000  H
  H67      1.0000 0.99028  0.88426  0.25000  Biso   1.000  H
  H68      1.0000 0.11574  0.10602  0.25000  Biso   1.000  H
  H69      1.0000 0.89398  0.00972  0.25000  Biso   1.000  H
  H70      1.0000 0.00972  0.11574  0.75000  Biso   1.000  H
  H71      1.0000 0.88426  0.89398  0.75000  Biso   1.000  H
  H72      1.0000 0.10602  0.99028  0.75000  Biso   1.000  H
