data_TD-COF-5-DFT
_audit_creation_date              0000-00-00
_audit_creation_method            'LanYouShi'
_symmetry_space_group_name_H-M    'P1'
_cell_length_a                    31.3283005
_cell_length_b                    31.3283005
_cell_length_c                    7.5183001
_cell_angle_alpha                 90.0000000
_cell_angle_beta                  90.0000000
_cell_angle_gamma                 120.0000000
loop_
_atom_site_label
_atom_site_type_symbol
_atom_site_fract_x
_atom_site_fract_y
_atom_site_fract_z
_atom_site_U_iso_or_equiv
_atom_site_adp_type
_atom_site_occupancy
        B1          B  0.5564499  0.4435501  0.0000000    0.00000       Uiso       1.00
        C1          C  0.5270678  0.4729322  0.0000000    0.00000       Uiso       1.00
        B2          B  0.5564499  0.1128999  0.0000000    0.00000       Uiso       1.00
        C2          C  0.5270678  0.0541356  0.0000000    0.00000       Uiso       1.00
        B3          B  0.8871001  0.4435501  0.0000000    0.00000       Uiso       1.00
        C3          C  0.9458644  0.4729322  0.0000000    0.00000       Uiso       1.00
        B4          B  0.4435501  0.5564499  0.0000000    0.00000       Uiso       1.00
        C4          C  0.4729322  0.5270678  0.0000000    0.00000       Uiso       1.00
        B5          B  0.4435501  0.8871002  0.0000000    0.00000       Uiso       1.00
        C5          C  0.4729322  0.9458644  0.0000000    0.00000       Uiso       1.00
        B6          B  0.1128999  0.5564499  0.0000000    0.00000       Uiso       1.00
        C6          C  0.0541356  0.5270678  0.0000000    0.00000       Uiso       1.00
        C7          C  0.2804299  0.6402149  0.0937669    0.00000       Uiso       1.00
        C8          C  0.1919105  0.5959553 -0.0926694    0.00000       Uiso       1.00
        H1          H  0.2354256  0.6177128 -0.3351314    0.00000       Uiso       1.00
        O1          O  0.1433510  0.5716755 -0.1530475    0.00000       Uiso       1.00
        C9          C  0.3597851  0.6402149  0.0937669    0.00000       Uiso       1.00
       C10          C  0.4040448  0.5959553 -0.0926694    0.00000       Uiso       1.00
        H2          H  0.3822872  0.6177128 -0.3351314    0.00000       Uiso       1.00
        O2          O  0.4283245  0.5716755 -0.1530475    0.00000       Uiso       1.00
       C11          C  0.3597851  0.7195701  0.0937669    0.00000       Uiso       1.00
       C12          C  0.4040447  0.8080895 -0.0926694    0.00000       Uiso       1.00
        H3          H  0.3822872  0.7645743 -0.3351314    0.00000       Uiso       1.00
        O3          O  0.4283245  0.8566490 -0.1530475    0.00000       Uiso       1.00
       C13          C  0.7195701  0.3597851  0.0937669    0.00000       Uiso       1.00
       C14          C  0.8080895  0.4040447 -0.0926694    0.00000       Uiso       1.00
        H4          H  0.7645743  0.3822872 -0.3351314    0.00000       Uiso       1.00
        O4          O  0.8566490  0.4283245 -0.1530475    0.00000       Uiso       1.00
       C15          C  0.6402149  0.3597851  0.0937669    0.00000       Uiso       1.00
       C16          C  0.5959552  0.4040447 -0.0926694    0.00000       Uiso       1.00
        H5          H  0.6177128  0.3822872 -0.3351314    0.00000       Uiso       1.00
        O5          O  0.5716755  0.4283245 -0.1530475    0.00000       Uiso       1.00
       C17          C  0.6402149  0.2804299  0.0937669    0.00000       Uiso       1.00
       C18          C  0.5959553  0.1919105 -0.0926694    0.00000       Uiso       1.00
        H6          H  0.6177128  0.2354256 -0.3351314    0.00000       Uiso       1.00
        O6          O  0.5716755  0.1433510 -0.1530475    0.00000       Uiso       1.00
       C19          C  0.6402149  0.2804299 -0.0937669    0.00000       Uiso       1.00
       C20          C  0.5959553  0.1919105  0.0926694    0.00000       Uiso       1.00
        H7          H  0.6177128  0.2354256  0.3351314    0.00000       Uiso       1.00
        O7          O  0.5716755  0.1433510  0.1530475    0.00000       Uiso       1.00
       C21          C  0.6402149  0.3597851 -0.0937669    0.00000       Uiso       1.00
       C22          C  0.5959552  0.4040447  0.0926694    0.00000       Uiso       1.00
        H8          H  0.6177128  0.3822872  0.3351314    0.00000       Uiso       1.00
        O8          O  0.5716755  0.4283245  0.1530475    0.00000       Uiso       1.00
       C23          C  0.7195701  0.3597851 -0.0937669    0.00000       Uiso       1.00
       C24          C  0.8080895  0.4040447  0.0926694    0.00000       Uiso       1.00
        H9          H  0.7645743  0.3822872  0.3351314    0.00000       Uiso       1.00
        O9          O  0.8566490  0.4283245  0.1530475    0.00000       Uiso       1.00
       C25          C  0.3597851  0.7195701 -0.0937669    0.00000       Uiso       1.00
       C26          C  0.4040447  0.8080895  0.0926694    0.00000       Uiso       1.00
       H10          H  0.3822872  0.7645743  0.3351314    0.00000       Uiso       1.00
       O10          O  0.4283245  0.8566490  0.1530475    0.00000       Uiso       1.00
       C27          C  0.3597851  0.6402149 -0.0937669    0.00000       Uiso       1.00
       C28          C  0.4040448  0.5959553  0.0926694    0.00000       Uiso       1.00
       H11          H  0.3822872  0.6177128  0.3351314    0.00000       Uiso       1.00
       O11          O  0.4283245  0.5716755  0.1530475    0.00000       Uiso       1.00
       C29          C  0.2804299  0.6402149 -0.0937669    0.00000       Uiso       1.00
       C30          C  0.1919105  0.5959553  0.0926694    0.00000       Uiso       1.00
       H12          H  0.2354256  0.6177128  0.3351314    0.00000       Uiso       1.00
       O12          O  0.1433510  0.5716755  0.1530475    0.00000       Uiso       1.00
       C31          C  0.3333333  0.6666666  0.1712274    0.00000       Uiso       1.00
       H13          H  0.3333333  0.6666666 -0.3173901    0.00000       Uiso       1.00
       C32          C  0.6666667  0.3333333  0.1712274    0.00000       Uiso       1.00
       H14          H  0.6666667  0.3333333 -0.3173901    0.00000       Uiso       1.00
       C33          C  0.6666667  0.3333333 -0.1712274    0.00000       Uiso       1.00
       H15          H  0.6666667  0.3333333  0.3173901    0.00000       Uiso       1.00
       C34          C  0.3333333  0.6666666 -0.1712274    0.00000       Uiso       1.00
       H16          H  0.3333333  0.6666666  0.3173901    0.00000       Uiso       1.00
       C35          C  0.4870585  0.5129415  0.1586019    0.00000       Uiso       1.00
       H17          H  0.4775701  0.5224299  0.2868114    0.00000       Uiso       1.00
       C36          C  0.3820175  0.6179825  0.1899402    0.00000       Uiso       1.00
       C37          C  0.4870585  0.9741170  0.1586019    0.00000       Uiso       1.00
       H18          H  0.4775701  0.9551401  0.2868114    0.00000       Uiso       1.00
       C38          C  0.3820175  0.7640350  0.1899402    0.00000       Uiso       1.00
       C39          C  0.0258829  0.5129415  0.1586019    0.00000       Uiso       1.00
       H19          H  0.0448599  0.5224299  0.2868114    0.00000       Uiso       1.00
       C40          C  0.2359650  0.6179825  0.1899402    0.00000       Uiso       1.00
       C41          C  0.5129415  0.4870585  0.1586019    0.00000       Uiso       1.00
       H20          H  0.5224299  0.4775701  0.2868114    0.00000       Uiso       1.00
       C42          C  0.6179825  0.3820175  0.1899402    0.00000       Uiso       1.00
       C43          C  0.5129415  0.0258830  0.1586019    0.00000       Uiso       1.00
       H21          H  0.5224299  0.0448599  0.2868114    0.00000       Uiso       1.00
       C44          C  0.6179825  0.2359650  0.1899402    0.00000       Uiso       1.00
       C45          C  0.9741170  0.4870585  0.1586019    0.00000       Uiso       1.00
       H22          H  0.9551401  0.4775701  0.2868114    0.00000       Uiso       1.00
       C46          C  0.7640350  0.3820175  0.1899402    0.00000       Uiso       1.00
       C47          C  0.5129415  0.4870585 -0.1586019    0.00000       Uiso       1.00
       H23          H  0.5224299  0.4775701 -0.2868114    0.00000       Uiso       1.00
       C48          C  0.6179825  0.3820175 -0.1899402    0.00000       Uiso       1.00
       C49          C  0.9741170  0.4870585 -0.1586019    0.00000       Uiso       1.00
       H24          H  0.9551401  0.4775701 -0.2868114    0.00000       Uiso       1.00
       C50          C  0.7640350  0.3820175 -0.1899402    0.00000       Uiso       1.00
       C51          C  0.5129415  0.0258830 -0.1586019    0.00000       Uiso       1.00
       H25          H  0.5224299  0.0448599 -0.2868114    0.00000       Uiso       1.00
       C52          C  0.6179825  0.2359650 -0.1899402    0.00000       Uiso       1.00
       C53          C  0.4870585  0.5129415 -0.1586019    0.00000       Uiso       1.00
       H26          H  0.4775701  0.5224299 -0.2868114    0.00000       Uiso       1.00
       C54          C  0.3820175  0.6179825 -0.1899402    0.00000       Uiso       1.00
       C55          C  0.0258829  0.5129415 -0.1586019    0.00000       Uiso       1.00
       H27          H  0.0448599  0.5224299 -0.2868114    0.00000       Uiso       1.00
       C56          C  0.2359650  0.6179825 -0.1899402    0.00000       Uiso       1.00
       C57          C  0.4870585  0.9741170 -0.1586019    0.00000       Uiso       1.00
       H28          H  0.4775701  0.9551401 -0.2868114    0.00000       Uiso       1.00
       C58          C  0.3820175  0.7640350 -0.1899402    0.00000       Uiso       1.00
